sad/pglib_opf_case2736sp_k__sad.m
%%%%%%%%%%%%%%%%%%%%%%%%%%%%%%%%%%%%%%%%%%%%%%%%%%%%%%%%%%%%%%%%%%%%%%%%%%%
%%%%                                                                  %%%%%
%%%%    IEEE PES Power Grid Library - Optimal Power Flow - v17.07     %%%%%
%%%%          (https://github.com/power-grid-lib/pglib-opf)           %%%%%
%%%%             Benchmark Group - Small Angle Difference             %%%%%
%%%%                        27 - August - 2017                        %%%%%
%%%%                                                                  %%%%%
%%%%%%%%%%%%%%%%%%%%%%%%%%%%%%%%%%%%%%%%%%%%%%%%%%%%%%%%%%%%%%%%%%%%%%%%%%%
function mpc = pglib_opf_case2736sp_k__sad
mpc.version = '2';
mpc.baseMVA = 100.0;

%% area data
%	area	refbus
mpc.areas = [
	1	 18;
];

%% bus data
%	bus_i	type	Pd	Qd	Gs	Bs	area	Vm	Va	baseKV	zone	Vmax	Vmin
mpc.bus = [
	1	 1	 0.0	 0.0	 0.0	 0.0	 1	    1.03000	    0.00000	 220.0	 1	    1.11000	    0.95000;
	2	 1	 0.0	 0.0	 0.0	 0.0	 1	    1.03000	    0.00000	 220.0	 1	    1.11000	    0.95000;
	3	 1	 0.0	 0.0	 0.0	 0.0	 1	    1.03000	    0.00000	 220.0	 1	    1.11000	    0.95000;
	4	 1	 0.0	 0.0	 0.0	 0.0	 1	    1.03000	    0.00000	 220.0	 1	    1.11000	    0.95000;
	5	 1	 0.0	 0.0	 0.0	 0.0	 1	    1.03000	    0.00000	 220.0	 1	    1.11000	    0.95000;
	6	 1	 0.0	 0.0	 0.0	 0.0	 1	    1.03000	    0.00000	 220.0	 1	    1.11000	    0.95000;
	7	 1	 0.0	 0.0	 0.0	 0.0	 1	    1.03000	    0.00000	 220.0	 1	    1.11000	    0.95000;
	8	 1	 0.0	 0.0	 0.0	 0.0	 1	    1.00000	    0.00000	 400.0	 1	    1.05000	    0.95000;
	9	 1	 0.0	 0.0	 0.0	 0.0	 1	    1.00000	    0.00000	 400.0	 1	    1.05000	    0.95000;
	10	 1	 0.0	 0.0	 0.0	 0.0	 1	    1.03000	    0.00000	 220.0	 1	    1.11000	    0.95000;
	11	 1	 0.0	 0.0	 0.0	 0.0	 1	    1.03000	    0.00000	 220.0	 1	    1.11000	    0.95000;
	12	 1	 0.0	 0.0	 0.0	 0.0	 1	    1.03000	    0.00000	 220.0	 1	    1.11000	    0.95000;
	13	 1	 0.0	 0.0	 0.0	 0.0	 1	    1.03000	    0.00000	 220.0	 1	    1.11000	    0.95000;
	14	 1	 0.0	 0.0	 0.0	 0.0	 1	    1.00000	    0.00000	 400.0	 1	    1.05000	    0.95000;
	15	 1	 0.0	 0.0	 0.0	 0.0	 1	    1.00000	    0.00000	 400.0	 1	    1.05000	    0.95000;
	16	 1	 0.0	 0.0	 0.0	 0.0	 1	    1.00000	    0.00000	 400.0	 1	    1.05000	    0.95000;
	17	 2	 0.0	 0.0	 0.0	 0.0	 1	    1.03000	    0.00000	 220.0	 1	    1.11000	    0.95000;
	18	 1	 0.0	 0.0	 0.0	 0.0	 1	    1.03000	    0.00000	 220.0	 1	    1.11000	    0.95000;
	19	 1	 0.0	 0.0	 0.0	 0.0	 1	    1.03000	    0.00000	 220.0	 1	    1.11000	    0.95000;
	20	 1	 0.0	 0.0	 0.0	 0.0	 1	    1.03000	    0.00000	 220.0	 1	    1.11000	    0.95000;
	21	 1	 0.0	 0.0	 0.0	 0.0	 1	    1.03000	    0.00000	 220.0	 1	    1.11000	    0.95000;
	22	 1	 0.0	 0.0	 0.0	 0.0	 1	    1.03000	    0.00000	 220.0	 1	    1.11000	    0.95000;
	23	 1	 0.0	 0.0	 0.0	 0.0	 1	    1.03000	    0.00000	 220.0	 1	    1.11000	    0.95000;
	24	 1	 0.0	 0.0	 0.0	 0.0	 1	    1.03000	    0.00000	 220.0	 1	    1.11000	    0.95000;
	25	 1	 0.0	 0.0	 0.0	 0.0	 1	    1.00000	    0.00000	 400.0	 1	    1.05000	    0.95000;
	26	 2	 61.358	 72.054	 0.0	 0.0	 1	    1.03000	    0.00000	 220.0	 1	    1.11000	    0.95000;
	27	 2	 84.861	 122.06	 0.0	 0.0	 1	    1.03000	    0.00000	 220.0	 1	    1.11000	    0.95000;
	28	 3	 49.0	 74.0	 0.0	 0.0	 1	    1.00000	    0.00000	 400.0	 1	    1.05000	    0.95000;
	29	 2	 49.0	 74.0	 0.0	 0.0	 1	    1.00000	    0.00000	 400.0	 1	    1.05000	    0.95000;
	30	 1	 0.0	 0.0	 0.0	 0.0	 1	    1.03000	    0.00000	 220.0	 1	    1.11000	    0.95000;
	31	 1	 0.0	 0.0	 0.0	 0.0	 1	    1.00000	    0.00000	 400.0	 1	    1.05000	    0.95000;
	32	 1	 0.0	 0.0	 0.0	 0.0	 1	    1.03000	    0.00000	 220.0	 1	    1.11000	    0.95000;
	33	 1	 0.0	 0.0	 0.0	 0.0	 1	    1.03000	    0.00000	 220.0	 1	    1.11000	    0.95000;
	34	 1	 0.0	 0.0	 0.0	 0.0	 1	    1.03000	    0.00000	 220.0	 2	    1.11000	    0.95000;
	35	 1	 0.0	 0.0	 0.0	 0.0	 1	    1.03000	    0.00000	 220.0	 2	    1.11000	    0.95000;
	36	 1	 0.0	 0.0	 0.0	 0.0	 1	    1.03000	    0.00000	 220.0	 2	    1.11000	    0.95000;
	37	 1	 0.0	 0.0	 0.0	 0.0	 1	    1.03000	    0.00000	 220.0	 2	    1.11000	    0.95000;
	38	 1	 0.0	 0.0	 0.0	 0.0	 1	    1.03000	    0.00000	 220.0	 2	    1.11000	    0.95000;
	39	 1	 0.0	 0.0	 0.0	 0.0	 1	    1.03000	    0.00000	 220.0	 2	    1.11000	    0.95000;
	40	 1	 0.0	 0.0	 0.0	 0.0	 1	    1.03000	    0.00000	 220.0	 2	    1.11000	    0.95000;
	41	 1	 0.0	 0.0	 0.0	 0.0	 1	    1.00000	    0.00000	 400.0	 2	    1.05000	    0.95000;
	42	 2	 25.0	 0.0	 0.0	 0.0	 1	    1.03000	    0.00000	 220.0	 2	    1.11000	    0.95000;
	43	 2	 26.0	 0.0	 0.0	 0.0	 1	    1.03000	    0.00000	 220.0	 2	    1.11000	    0.95000;
	44	 2	 25.0	 0.0	 0.0	 0.0	 1	    1.00000	    0.00000	 400.0	 2	    1.05000	    0.95000;
	45	 1	 0.0	 0.0	 0.0	 0.0	 1	    1.00000	    0.00000	 400.0	 2	    1.05000	    0.95000;
	46	 1	 0.0	 0.0	 0.0	 0.0	 1	    1.03000	    0.00000	 220.0	 2	    1.11000	    0.95000;
	47	 1	 0.0	 0.0	 0.0	 0.0	 1	    1.00000	    0.00000	 400.0	 2	    1.05000	    0.95000;
	48	 1	 0.0	 0.0	 0.0	 0.0	 1	    1.00000	    0.00000	 400.0	 2	    1.05000	    0.95000;
	49	 1	 0.0	 0.0	 0.0	 0.0	 1	    1.00000	    0.00000	 400.0	 2	    1.05000	    0.95000;
	50	 1	 0.0	 0.0	 0.0	 0.0	 1	    1.03000	    0.00000	 220.0	 2	    1.11000	    0.95000;
	51	 1	 0.0	 0.0	 0.0	 0.0	 1	    1.03000	    0.00000	 220.0	 2	    1.11000	    0.95000;
	52	 1	 0.0	 0.0	 0.0	 0.0	 1	    1.00000	    0.00000	 400.0	 2	    1.05000	    0.95000;
	53	 1	 0.0	 0.0	 0.0	 0.0	 1	    1.00000	    0.00000	 400.0	 2	    1.05000	    0.95000;
	54	 2	 13.0	 0.0	 0.0	 0.0	 1	    1.03000	    0.00000	 220.0	 2	    1.11000	    0.95000;
	55	 2	 13.0	 0.0	 0.0	 0.0	 1	    1.03000	    0.00000	 220.0	 2	    1.11000	    0.95000;
	56	 2	 13.0	 0.0	 0.0	 0.0	 1	    1.00000	    0.00000	 400.0	 2	    1.05000	    0.95000;
	57	 2	 26.0	 0.0	 0.0	 0.0	 1	    1.00000	    0.00000	 400.0	 2	    1.05000	    0.95000;
	58	 2	 89.067	 40.0	 0.0	 0.0	 1	    1.03000	    0.00000	 220.0	 2	    1.11000	    0.95000;
	59	 1	 0.0	 0.0	 0.0	 0.0	 1	    1.03000	    0.00000	 220.0	 2	    1.11000	    0.95000;
	60	 1	 0.0	 0.0	 0.0	 0.0	 1	    1.03000	    0.00000	 220.0	 2	    1.11000	    0.95000;
	61	 1	 0.0	 0.0	 0.0	 0.0	 1	    1.03000	    0.00000	 220.0	 2	    1.11000	    0.95000;
	62	 1	 0.0	 0.0	 0.0	 0.0	 1	    1.03000	    0.00000	 220.0	 2	    1.11000	    0.95000;
	63	 1	 0.0	 0.0	 0.0	 0.0	 1	    1.00000	    0.00000	 400.0	 2	    1.05000	    0.95000;
	64	 1	 0.0	 0.0	 0.0	 0.0	 1	    1.00000	    0.00000	 400.0	 2	    1.05000	    0.95000;
	65	 1	 0.0	 0.0	 0.0	 0.0	 1	    1.03000	    0.00000	 220.0	 2	    1.11000	    0.95000;
	66	 1	 0.0	 0.0	 0.0	 0.0	 1	    1.03000	    0.00000	 220.0	 2	    1.11000	    0.95000;
	67	 1	 0.0	 0.0	 0.0	 0.0	 1	    1.03000	    0.00000	 220.0	 2	    1.11000	    0.95000;
	68	 1	 0.0	 0.0	 0.0	 0.0	 1	    1.03000	    0.00000	 220.0	 3	    1.11000	    0.95000;
	69	 1	 10.327	 0.0	 0.0	 0.0	 1	    1.03000	    0.00000	 220.0	 3	    1.11000	    0.95000;
	70	 1	 8.032	 3.714	 0.0	 0.0	 1	    1.03000	    0.00000	 220.0	 3	    1.11000	    0.95000;
	71	 1	 0.0	 0.0	 0.0	 0.0	 1	    1.03000	    0.00000	 220.0	 3	    1.11000	    0.95000;
	72	 1	 0.0	 0.0	 0.0	 0.0	 1	    1.03000	    0.00000	 220.0	 3	    1.11000	    0.95000;
	73	 1	 0.0	 0.0	 0.0	 0.0	 1	    1.03000	    0.00000	 220.0	 3	    1.11000	    0.95000;
	74	 1	 0.0	 0.0	 0.0	 0.0	 1	    1.03000	    0.00000	 220.0	 3	    1.11000	    0.95000;
	75	 1	 0.0	 0.0	 0.0	 0.0	 1	    1.03000	    0.00000	 220.0	 3	    1.11000	    0.95000;
	76	 1	 0.0	 0.0	 0.0	 0.0	 1	    1.03000	    0.00000	 220.0	 3	    1.11000	    0.95000;
	77	 2	 27.0	 70.0	 0.0	 0.0	 1	    1.03000	    0.00000	 220.0	 3	    1.11000	    0.95000;
	78	 2	 18.7	 42.0	 0.0	 0.0	 1	    1.03000	    0.00000	 220.0	 3	    1.11000	    0.95000;
	79	 1	 4.934	 0.817	 0.0	 0.0	 1	    1.03000	    0.00000	 220.0	 3	    1.11000	    0.95000;
	80	 1	 0.0	 0.0	 0.0	 0.0	 1	    1.03000	    0.00000	 220.0	 3	    1.11000	    0.95000;
	81	 2	 18.0	 57.0	 0.0	 0.0	 1	    1.00000	    0.00000	 400.0	 3	    1.05000	    0.95000;
	82	 1	 0.0	 0.0	 0.0	 0.0	 1	    1.03000	    0.00000	 220.0	 3	    1.11000	    0.95000;
	83	 1	 0.0	 0.0	 0.0	 0.0	 1	    1.03000	    0.00000	 220.0	 3	    1.11000	    0.95000;
	84	 1	 0.0	 0.0	 0.0	 0.0	 1	    1.03000	    0.00000	 220.0	 3	    1.11000	    0.95000;
	85	 1	 44.864	 -6.4	 0.0	 0.0	 1	    1.03000	    0.00000	 220.0	 3	    1.11000	    0.95000;
	86	 1	 0.0	 0.0	 0.0	 0.0	 1	    1.03000	    0.00000	 220.0	 3	    1.11000	    0.95000;
	87	 1	 0.0	 0.0	 0.0	 0.0	 1	    1.03000	    0.00000	 220.0	 3	    1.11000	    0.95000;
	88	 1	 0.0	 0.0	 0.0	 0.0	 1	    1.03000	    0.00000	 220.0	 3	    1.11000	    0.95000;
	89	 1	 0.0	 0.0	 0.0	 0.0	 1	    1.03000	    0.00000	 220.0	 3	    1.11000	    0.95000;
	90	 1	 0.0	 0.0	 0.0	 0.0	 1	    1.03000	    0.00000	 220.0	 3	    1.11000	    0.95000;
	91	 1	 0.0	 0.0	 0.0	 0.0	 1	    1.00000	    0.00000	 400.0	 3	    1.05000	    0.95000;
	92	 1	 0.0	 0.0	 0.0	 0.0	 1	    1.00000	    0.00000	 400.0	 3	    1.05000	    0.95000;
	93	 1	 0.0	 0.0	 0.0	 0.0	 1	    1.03000	    0.00000	 220.0	 3	    1.11000	    0.95000;
	94	 1	 0.0	 0.0	 0.0	 0.0	 1	    1.03000	    0.00000	 220.0	 3	    1.11000	    0.95000;
	95	 1	 0.0	 0.0	 0.0	 0.0	 1	    1.03000	    0.00000	 220.0	 3	    1.11000	    0.95000;
	96	 1	 0.0	 0.0	 0.0	 0.0	 1	    1.03000	    0.00000	 220.0	 3	    1.11000	    0.95000;
	97	 2	 12.49	 3.696	 0.0	 0.0	 1	    1.03000	    0.00000	 220.0	 3	    1.11000	    0.95000;
	98	 1	 17.327	 6.126	 0.0	 0.0	 1	    1.03000	    0.00000	 220.0	 3	    1.11000	    0.95000;
	99	 1	 0.0	 0.0	 0.0	 0.0	 1	    1.03000	    0.00000	 220.0	 3	    1.11000	    0.95000;
	100	 1	 0.0	 0.0	 0.0	 0.0	 1	    1.03000	    0.00000	 220.0	 3	    1.11000	    0.95000;
	101	 1	 0.0	 0.0	 0.0	 0.0	 1	    1.03000	    0.00000	 220.0	 3	    1.11000	    0.95000;
	102	 1	 0.0	 0.0	 0.0	 0.0	 1	    1.03000	    0.00000	 220.0	 3	    1.11000	    0.95000;
	103	 2	 14.0	 40.0	 0.0	 0.0	 1	    1.03000	    0.00000	 220.0	 3	    1.11000	    0.95000;
	104	 2	 0.0	 0.0	 0.0	 0.0	 1	    1.03000	    0.00000	 220.0	 3	    1.11000	    0.95000;
	105	 2	 7.0	 18.0	 0.0	 0.0	 1	    1.03000	    0.00000	 220.0	 3	    1.11000	    0.95000;
	106	 2	 0.0	 0.0	 0.0	 0.0	 1	    1.03000	    0.00000	 220.0	 3	    1.11000	    0.95000;
	107	 1	 0.0	 13.892	 0.0	 0.0	 1	    1.03000	    0.00000	 220.0	 3	    1.11000	    0.95000;
	108	 1	 73.779	 8.097	 0.0	 0.0	 1	    1.03000	    0.00000	 220.0	 3	    1.11000	    0.95000;
	109	 1	 0.0	 0.0	 0.0	 0.0	 1	    1.03000	    0.00000	 220.0	 3	    1.11000	    0.95000;
	110	 1	 0.0	 0.0	 0.0	 0.0	 1	    1.03000	    0.00000	 220.0	 3	    1.11000	    0.95000;
	111	 1	 0.0	 0.0	 0.0	 0.0	 1	    1.03000	    0.00000	 220.0	 3	    1.11000	    0.95000;
	112	 1	 0.0	 0.0	 0.0	 0.0	 1	    1.03000	    0.00000	 220.0	 3	    1.11000	    0.95000;
	113	 1	 0.0	 0.0	 0.0	 0.0	 1	    1.03000	    0.00000	 220.0	 3	    1.11000	    0.95000;
	114	 1	 0.0	 0.0	 0.0	 0.0	 1	    1.00000	    0.00000	 400.0	 3	    1.05000	    0.95000;
	115	 2	 0.0	 0.0	 0.0	 0.0	 1	    1.03000	    0.00000	 220.0	 3	    1.11000	    0.95000;
	116	 2	 8.0	 15.0	 0.0	 0.0	 1	    1.03000	    0.00000	 220.0	 3	    1.11000	    0.95000;
	117	 2	 5.5	 10.0	 0.0	 0.0	 1	    1.03000	    0.00000	 220.0	 3	    1.11000	    0.95000;
	118	 1	 0.0	 0.0	 0.0	 0.0	 1	    1.03000	    0.00000	 220.0	 3	    1.11000	    0.95000;
	119	 1	 0.0	 0.0	 0.0	 0.0	 1	    1.00000	    0.00000	 400.0	 3	    1.05000	    0.95000;
	120	 1	 0.0	 0.0	 0.0	 0.0	 1	    1.00000	    0.00000	 400.0	 3	    1.05000	    0.95000;
	121	 1	 0.0	 0.0	 0.0	 0.0	 1	    1.00000	    0.00000	 400.0	 3	    1.05000	    0.95000;
	122	 1	 0.0	 0.0	 0.0	 0.0	 1	    1.00000	    0.00000	 400.0	 3	    1.05000	    0.95000;
	123	 1	 0.0	 0.0	 0.0	 0.0	 1	    1.03000	    0.00000	 220.0	 3	    1.11000	    0.95000;
	124	 2	 11.0	 17.5	 0.0	 0.0	 1	    1.03000	    0.00000	 220.0	 3	    1.11000	    0.95000;
	125	 2	 41.353	 61.2	 0.0	 0.0	 1	    1.03000	    0.00000	 220.0	 3	    1.11000	    0.95000;
	126	 2	 14.0	 33.0	 0.0	 0.0	 1	    1.00000	    0.00000	 400.0	 3	    1.05000	    0.95000;
	127	 1	 0.0	 0.0	 0.0	 0.0	 1	    1.00000	    0.00000	 400.0	 3	    1.05000	    0.95000;
	128	 1	 0.0	 0.0	 0.0	 0.0	 1	    1.03000	    0.00000	 220.0	 3	    1.11000	    0.95000;
	129	 1	 0.0	 0.0	 0.0	 0.0	 1	    1.03000	    0.00000	 220.0	 3	    1.11000	    0.95000;
	130	 1	 0.0	 0.0	 0.0	 0.0	 1	    1.03000	    0.00000	 220.0	 3	    1.11000	    0.95000;
	131	 2	 1.5	 9.0	 0.0	 0.0	 1	    1.03000	    0.00000	 220.0	 3	    1.11000	    0.95000;
	132	 2	 0.0	 0.0	 0.0	 0.0	 1	    1.03000	    0.00000	 220.0	 3	    1.11000	    0.95000;
	133	 2	 11.215	 8.3	 0.0	 0.0	 1	    1.03000	    0.00000	 220.0	 4	    1.11000	    0.95000;
	134	 2	 10.333	 7.7	 0.0	 0.0	 1	    1.03000	    0.00000	 220.0	 4	    1.11000	    0.95000;
	135	 1	 0.0	 0.0	 0.0	 0.0	 1	    1.03000	    0.00000	 220.0	 4	    1.11000	    0.95000;
	136	 1	 0.0	 0.0	 0.0	 0.0	 1	    1.03000	    0.00000	 220.0	 4	    1.11000	    0.95000;
	137	 1	 0.0	 0.0	 0.0	 0.0	 1	    1.00000	    0.00000	 400.0	 4	    1.05000	    0.95000;
	138	 1	 0.0	 0.0	 0.0	 0.0	 1	    1.00000	    0.00000	 400.0	 4	    1.05000	    0.95000;
	139	 1	 0.0	 0.0	 0.0	 0.0	 1	    1.03000	    0.00000	 220.0	 4	    1.11000	    0.95000;
	140	 1	 0.0	 0.0	 0.0	 0.0	 1	    1.03000	    0.00000	 220.0	 4	    1.11000	    0.95000;
	141	 1	 0.0	 0.0	 0.0	 0.0	 1	    1.03000	    0.00000	 220.0	 4	    1.11000	    0.95000;
	142	 1	 0.0	 0.0	 0.0	 0.0	 1	    1.03000	    0.00000	 220.0	 4	    1.11000	    0.95000;
	143	 1	 0.0	 0.0	 0.0	 0.0	 1	    1.03000	    0.00000	 220.0	 4	    1.11000	    0.95000;
	144	 1	 0.0	 0.0	 0.0	 0.0	 1	    1.03000	    0.00000	 220.0	 4	    1.11000	    0.95000;
	145	 2	 0.0	 0.0	 0.0	 0.0	 1	    1.03000	    0.00000	 220.0	 4	    1.11000	    0.95000;
	146	 2	 0.0	 0.0	 0.0	 0.0	 1	    1.03000	    0.00000	 220.0	 4	    1.11000	    0.95000;
	147	 2	 25.553	 12.9	 0.0	 0.0	 1	    1.03000	    0.00000	 220.0	 4	    1.11000	    0.95000;
	148	 1	 0.0	 0.0	 0.0	 0.0	 1	    1.03000	    0.00000	 220.0	 4	    1.11000	    0.95000;
	149	 2	 11.0	 12.0	 0.0	 0.0	 1	    1.00000	    0.00000	 400.0	 4	    1.05000	    0.95000;
	150	 2	 11.922	 13.7	 0.0	 0.0	 1	    1.00000	    0.00000	 400.0	 4	    1.05000	    0.95000;
	151	 1	 0.0	 0.0	 0.0	 0.0	 1	    1.03000	    0.00000	 220.0	 4	    1.11000	    0.95000;
	152	 1	 0.0	 0.0	 0.0	 0.0	 1	    1.03000	    0.00000	 220.0	 4	    1.11000	    0.95000;
	153	 1	 0.0	 0.0	 0.0	 0.0	 1	    1.03000	    0.00000	 220.0	 4	    1.11000	    0.95000;
	154	 2	 19.475	 64.3	 0.0	 0.0	 1	    1.03000	    0.00000	 220.0	 4	    1.11000	    0.95000;
	155	 2	 16.0	 33.0	 0.0	 0.0	 1	    1.03000	    0.00000	 220.0	 4	    1.11000	    0.95000;
	156	 1	 0.0	 0.0	 0.0	 0.0	 1	    1.00000	    0.00000	 400.0	 4	    1.05000	    0.95000;
	157	 2	 10.0	 25.0	 0.0	 0.0	 1	    1.00000	    0.00000	 400.0	 4	    1.05000	    0.95000;
	158	 1	 0.0	 0.0	 0.0	 0.0	 1	    1.03000	    0.00000	 220.0	 4	    1.11000	    0.95000;
	159	 1	 0.0	 0.0	 0.0	 0.0	 1	    1.03000	    0.00000	 220.0	 4	    1.11000	    0.95000;
	160	 1	 0.0	 0.0	 0.0	 0.0	 1	    1.00000	    0.00000	 400.0	 4	    1.05000	    0.95000;
	161	 1	 0.0	 0.0	 0.0	 0.0	 1	    1.00000	    0.00000	 400.0	 4	    1.05000	    0.95000;
	162	 1	 0.0	 0.0	 0.0	 0.0	 1	    1.00000	    0.00000	 400.0	 4	    1.05000	    0.95000;
	163	 2	 5.54	 2.93	 0.0	 0.0	 1	    1.03000	    0.00000	 220.0	 4	    1.11000	    0.95000;
	164	 2	 18.255	 11.5	 0.0	 0.0	 1	    1.03000	    0.00000	 220.0	 4	    1.11000	    0.95000;
	165	 1	 0.0	 0.0	 0.0	 0.0	 1	    1.03000	    0.00000	 220.0	 4	    1.11000	    0.95000;
	166	 1	 0.0	 0.0	 0.0	 0.0	 1	    1.03000	    0.00000	 220.0	 4	    1.11000	    0.95000;
	167	 1	 0.0	 0.0	 0.0	 0.0	 1	    1.03000	    0.00000	 220.0	 4	    1.11000	    0.95000;
	168	 1	 0.0	 0.0	 0.0	 0.0	 1	    1.03000	    0.00000	 220.0	 4	    1.11000	    0.95000;
	169	 1	 0.0	 0.0	 0.0	 0.0	 1	    1.03000	    0.00000	 220.0	 4	    1.11000	    0.95000;
	170	 1	 0.0	 0.0	 0.0	 0.0	 1	    1.00000	    0.00000	 400.0	 4	    1.05000	    0.95000;
	171	 1	 0.0	 0.0	 0.0	 0.0	 1	    1.00000	    0.00000	 400.0	 4	    1.05000	    0.95000;
	172	 1	 0.0	 0.0	 0.0	 0.0	 1	    1.03000	    0.00000	 220.0	 4	    1.11000	    0.95000;
	173	 1	 0.0	 0.0	 0.0	 0.0	 1	    1.03000	    0.00000	 220.0	 4	    1.11000	    0.95000;
	174	 1	 0.0	 0.0	 0.0	 0.0	 1	    1.03000	    0.00000	 220.0	 4	    1.11000	    0.95000;
	175	 1	 0.0	 0.0	 0.0	 0.0	 1	    1.03000	    0.00000	 220.0	 4	    1.11000	    0.95000;
	176	 1	 0.0	 0.0	 0.0	 0.0	 1	    1.03000	    0.00000	 220.0	 4	    1.11000	    0.95000;
	177	 1	 0.0	 0.0	 0.0	 0.0	 1	    1.03000	    0.00000	 220.0	 4	    1.11000	    0.95000;
	178	 1	 0.0	 0.0	 0.0	 0.0	 1	    1.03000	    0.00000	 220.0	 4	    1.11000	    0.95000;
	179	 2	 3.13	 1.5	 0.0	 0.0	 1	    1.03000	    0.00000	 220.0	 4	    1.11000	    0.95000;
	180	 1	 0.0	 0.0	 0.0	 0.0	 1	    1.03000	    0.00000	 220.0	 4	    1.11000	    0.95000;
	181	 1	 0.0	 0.0	 0.0	 0.0	 1	    1.03000	    0.00000	 220.0	 5	    1.11000	    0.95000;
	182	 1	 0.0	 0.0	 0.0	 0.0	 1	    1.03000	    0.00000	 220.0	 5	    1.11000	    0.95000;
	183	 1	 0.0	 0.0	 0.0	 0.0	 1	    1.00000	    0.00000	 400.0	 5	    1.05000	    0.95000;
	184	 1	 0.0	 0.0	 0.0	 0.0	 1	    1.00000	    0.00000	 400.0	 5	    1.05000	    0.95000;
	185	 1	 0.0	 0.0	 0.0	 0.0	 1	    1.00000	    0.00000	 400.0	 5	    1.05000	    0.95000;
	186	 1	 0.0	 0.0	 0.0	 0.0	 1	    1.00000	    0.00000	 400.0	 5	    1.05000	    0.95000;
	187	 1	 0.0	 0.0	 0.0	 0.0	 1	    1.03000	    0.00000	 220.0	 5	    1.11000	    0.95000;
	188	 1	 0.0	 0.0	 0.0	 0.0	 1	    1.03000	    0.00000	 220.0	 5	    1.11000	    0.95000;
	189	 1	 0.0	 0.0	 0.0	 0.0	 1	    1.03000	    0.00000	 220.0	 5	    1.11000	    0.95000;
	190	 1	 0.0	 0.0	 0.0	 0.0	 1	    1.03000	    0.00000	 220.0	 5	    1.11000	    0.95000;
	191	 1	 0.0	 0.0	 0.0	 0.0	 1	    1.00000	    0.00000	 400.0	 5	    1.05000	    0.95000;
	192	 1	 0.0	 0.0	 0.0	 0.0	 1	    1.03000	    0.00000	 220.0	 5	    1.11000	    0.95000;
	193	 1	 0.0	 0.0	 0.0	 0.0	 1	    1.03000	    0.00000	 220.0	 5	    1.11000	    0.95000;
	194	 1	 0.0	 0.0	 0.0	 0.0	 1	    1.00000	    0.00000	 400.0	 5	    1.05000	    0.95000;
	195	 1	 0.0	 0.0	 0.0	 0.0	 1	    1.00000	    0.00000	 400.0	 5	    1.05000	    0.95000;
	196	 1	 0.0	 0.0	 0.0	 0.0	 1	    1.03000	    0.00000	 220.0	 5	    1.11000	    0.95000;
	197	 1	 0.0	 0.0	 0.0	 0.0	 1	    1.03000	    0.00000	 220.0	 5	    1.11000	    0.95000;
	198	 1	 0.0	 0.0	 0.0	 -117.0	 1	    1.00000	    0.00000	 400.0	 5	    1.05000	    0.95000;
	199	 1	 0.0	 0.0	 0.0	 0.0	 1	    1.00000	    0.00000	 400.0	 5	    1.05000	    0.95000;
	200	 1	 0.0	 0.0	 0.0	 0.0	 1	    1.03000	    0.00000	 220.0	 5	    1.11000	    0.95000;
...
];

%% generator data
%	bus	Pg	Qg	Qmax	Qmin	Vg	mBase	status	Pmax	Pmin	Pc1	Pc2	Qc1min	Qc1max	Qc2min	Qc2max	ramp_agc	ramp_10	ramp_30	ramp_q	apf
mpc.gen = [
	17	 175.0	 49.0	 120.0	 -22.0	 1.07106	 241.9	 0	 210.0	 140.0	 0.0	 0.0	 0.0	 0.0	 0.0	 0.0	 0.0	 0.0	 0.0	 0.0	 0.0;
	17	 170.0	 49.0	 120.0	 -22.0	 1.07106	 233.2	 0	 200.0	 140.0	 0.0	 0.0	 0.0	 0.0	 0.0	 0.0	 0.0	 0.0	 0.0	 0.0	 0.0;
	26	 330.0	 85.5	 190.0	 -19.0	 1.09091	 415.9	 1	 370.0	 290.0	 0.0	 0.0	 0.0	 0.0	 0.0	 0.0	 0.0	 0.0	 0.0	 0.0	 0.0;
	27	 325.0	 85.5	 190.0	 -19.0	 1.09091	 407.1	 1	 360.0	 290.0	 0.0	 0.0	 0.0	 0.0	 0.0	 0.0	 0.0	 0.0	 0.0	 0.0	 0.0;
	27	 325.0	 85.5	 190.0	 -19.0	 1.09091	 407.1	 1	 360.0	 290.0	 0.0	 0.0	 0.0	 0.0	 0.0	 0.0	 0.0	 0.0	 0.0	 0.0	 0.0;
	27	 330.0	 85.5	 190.0	 -19.0	 1.09091	 415.9	 1	 370.0	 290.0	 0.0	 0.0	 0.0	 0.0	 0.0	 0.0	 0.0	 0.0	 0.0	 0.0	 0.0;
	26	 330.0	 85.5	 190.0	 -19.0	 1.09091	 415.9	 1	 370.0	 290.0	 0.0	 0.0	 0.0	 0.0	 0.0	 0.0	 0.0	 0.0	 0.0	 0.0	 0.0;
	28	 330.0	 85.5	 190.0	 -19.0	 1.02665	 415.9	 1	 370.0	 290.0	 0.0	 0.0	 0.0	 0.0	 0.0	 0.0	 0.0	 0.0	 0.0	 0.0	 0.0;
	28	 330.0	 85.5	 190.0	 -19.0	 1.02665	 415.9	 0	 370.0	 290.0	 0.0	 0.0	 0.0	 0.0	 0.0	 0.0	 0.0	 0.0	 0.0	 0.0	 0.0;
	28	 330.0	 85.5	 190.0	 -19.0	 1.02665	 415.9	 1	 370.0	 290.0	 0.0	 0.0	 0.0	 0.0	 0.0	 0.0	 0.0	 0.0	 0.0	 0.0	 0.0;
	29	 330.0	 85.5	 190.0	 -19.0	 1.02665	 415.9	 0	 370.0	 290.0	 0.0	 0.0	 0.0	 0.0	 0.0	 0.0	 0.0	 0.0	 0.0	 0.0	 0.0;
	29	 330.0	 85.5	 190.0	 -19.0	 1.02665	 415.9	 1	 370.0	 290.0	 0.0	 0.0	 0.0	 0.0	 0.0	 0.0	 0.0	 0.0	 0.0	 0.0	 0.0;
	29	 330.0	 85.5	 190.0	 -19.0	 1.02665	 415.9	 1	 370.0	 290.0	 0.0	 0.0	 0.0	 0.0	 0.0	 0.0	 0.0	 0.0	 0.0	 0.0	 0.0;
	42	 172.5	 50.5	 135.0	 -34.0	 1.09091	 253.9	 1	 215.0	 130.0	 0.0	 0.0	 0.0	 0.0	 0.0	 0.0	 0.0	 0.0	 0.0	 0.0	 0.0;
	42	 170.0	 48.0	 130.0	 -34.0	 1.09091	 242.7	 0	 205.0	 135.0	 0.0	 0.0	 0.0	 0.0	 0.0	 0.0	 0.0	 0.0	 0.0	 0.0	 0.0;
	42	 167.5	 55.5	 145.0	 -34.0	 1.09091	 267.7	 1	 225.0	 110.0	 0.0	 0.0	 0.0	 0.0	 0.0	 0.0	 0.0	 0.0	 0.0	 0.0	 0.0;
	43	 172.5	 55.5	 145.0	 -34.0	 1.09091	 267.7	 1	 225.0	 120.0	 0.0	 0.0	 0.0	 0.0	 0.0	 0.0	 0.0	 0.0	 0.0	 0.0	 0.0;
	43	 177.5	 55.5	 145.0	 -34.0	 1.09091	 267.7	 1	 225.0	 130.0	 0.0	 0.0	 0.0	 0.0	 0.0	 0.0	 0.0	 0.0	 0.0	 0.0	 0.0;
	43	 170.0	 48.0	 130.0	 -34.0	 1.09091	 242.7	 0	 205.0	 135.0	 0.0	 0.0	 0.0	 0.0	 0.0	 0.0	 0.0	 0.0	 0.0	 0.0	 0.0;
	44	 395.0	 158.0	 363.0	 -47.0	 1.01857	 646.5	 1	 535.0	 255.0	 0.0	 0.0	 0.0	 0.0	 0.0	 0.0	 0.0	 0.0	 0.0	 0.0	 0.0;
	44	 405.0	 124.0	 348.0	 -100.0	 1.01857	 659.3	 0	 560.0	 250.0	 0.0	 0.0	 0.0	 0.0	 0.0	 0.0	 0.0	 0.0	 0.0	 0.0	 0.0;
	54	 177.0	 51.5	 104.0	 -1.0	 1.09116	 247.9	 1	 225.0	 129.0	 0.0	 0.0	 0.0	 0.0	 0.0	 0.0	 0.0	 0.0	 0.0	 0.0	 0.0;
	55	 177.0	 57.0	 130.0	 -16.0	 1.09114	 259.9	 1	 225.0	 129.0	 0.0	 0.0	 0.0	 0.0	 0.0	 0.0	 0.0	 0.0	 0.0	 0.0	 0.0;
	54	 177.0	 57.0	 130.0	 -16.0	 1.09116	 259.9	 0	 225.0	 129.0	 0.0	 0.0	 0.0	 0.0	 0.0	 0.0	 0.0	 0.0	 0.0	 0.0	 0.0;
	56	 177.0	 57.0	 130.0	 -16.0	 1.04039	 259.9	 1	 225.0	 129.0	 0.0	 0.0	 0.0	 0.0	 0.0	 0.0	 0.0	 0.0	 0.0	 0.0	 0.0;
	57	 177.0	 57.0	 130.0	 -16.0	 1.04036	 259.9	 1	 225.0	 129.0	 0.0	 0.0	 0.0	 0.0	 0.0	 0.0	 0.0	 0.0	 0.0	 0.0	 0.0;
	57	 177.0	 51.5	 104.0	 -1.0	 1.04036	 247.9	 0	 225.0	 129.0	 0.0	 0.0	 0.0	 0.0	 0.0	 0.0	 0.0	 0.0	 0.0	 0.0	 0.0;
	57	 177.0	 57.0	 130.0	 -16.0	 1.04036	 259.9	 1	 225.0	 129.0	 0.0	 0.0	 0.0	 0.0	 0.0	 0.0	 0.0	 0.0	 0.0	 0.0	 0.0;
	58	 48.1	 15.0	 30.0	 0.0	 1.08754	 66.5	 1	 48.1	 48.1	 0.0	 0.0	 0.0	 0.0	 0.0	 0.0	 0.0	 0.0	 0.0	 0.0	 0.0;
	77	 182.5	 54.0	 123.0	 -15.0	 1.09091	 256.4	 1	 225.0	 140.0	 0.0	 0.0	 0.0	 0.0	 0.0	 0.0	 0.0	 0.0	 0.0	 0.0	 0.0;
	77	 182.5	 54.0	 123.0	 -15.0	 1.09091	 256.4	 1	 225.0	 140.0	 0.0	 0.0	 0.0	 0.0	 0.0	 0.0	 0.0	 0.0	 0.0	 0.0	 0.0;
	78	 180.0	 54.0	 123.0	 -15.0	 1.09091	 252.0	 0	 220.0	 140.0	 0.0	 0.0	 0.0	 0.0	 0.0	 0.0	 0.0	 0.0	 0.0	 0.0	 0.0;
	78	 182.5	 54.0	 123.0	 -15.0	 1.09091	 256.4	 1	 225.0	 140.0	 0.0	 0.0	 0.0	 0.0	 0.0	 0.0	 0.0	 0.0	 0.0	 0.0	 0.0;
	78	 182.5	 54.0	 123.0	 -15.0	 1.09091	 256.4	 1	 225.0	 140.0	 0.0	 0.0	 0.0	 0.0	 0.0	 0.0	 0.0	 0.0	 0.0	 0.0	 0.0;
	81	 300.0	 100.5	 232.0	 -31.0	 1.02168	 445.2	 1	 380.0	 220.0	 0.0	 0.0	 0.0	 0.0	 0.0	 0.0	 0.0	 0.0	 0.0	 0.0	 0.0;
	81	 295.0	 99.0	 228.0	 -30.0	 1.02168	 434.6	 0	 370.0	 220.0	 0.0	 0.0	 0.0	 0.0	 0.0	 0.0	 0.0	 0.0	 0.0	 0.0	 0.0;
	97	 9.0	 0.5	 1.0	 0.0	 1.08955	 12.0	 1	 9.0	 9.0	 0.0	 0.0	 0.0	 0.0	 0.0	 0.0	 0.0	 0.0	 0.0	 0.0	 0.0;
	97	 6.0	 0.5	 1.0	 0.0	 1.08955	 6.1	 1	 6.0	 6.0	 0.0	 0.0	 0.0	 0.0	 0.0	 0.0	 0.0	 0.0	 0.0	 0.0	 0.0;
	103	 179.5	 54.0	 123.0	 -15.0	 1.08905	 256.4	 1	 225.0	 134.0	 0.0	 0.0	 0.0	 0.0	 0.0	 0.0	 0.0	 0.0	 0.0	 0.0	 0.0;
	104	 179.5	 54.0	 123.0	 -15.0	 1.08898	 256.4	 0	 225.0	 134.0	 0.0	 0.0	 0.0	 0.0	 0.0	 0.0	 0.0	 0.0	 0.0	 0.0	 0.0;
	105	 99.5	 39.0	 80.0	 -2.0	 1.0875	 144.2	 1	 120.0	 79.0	 0.0	 0.0	 0.0	 0.0	 0.0	 0.0	 0.0	 0.0	 0.0	 0.0	 0.0;
	106	 99.5	 39.0	 80.0	 -2.0	 1.0874	 144.2	 0	 120.0	 79.0	 0.0	 0.0	 0.0	 0.0	 0.0	 0.0	 0.0	 0.0	 0.0	 0.0	 0.0;
	115	 105.0	 35.0	 90.0	 -20.0	 1.08993	 150.0	 0	 120.0	 90.0	 0.0	 0.0	 0.0	 0.0	 0.0	 0.0	 0.0	 0.0	 0.0	 0.0	 0.0;
	116	 95.0	 40.0	 82.0	 -2.0	 1.08992	 145.3	 1	 120.0	 70.0	 0.0	 0.0	 0.0	 0.0	 0.0	 0.0	 0.0	 0.0	 0.0	 0.0	 0.0;
	117	 95.0	 20.0	 40.0	 0.0	 1.08788	 117.0	 1	 110.0	 80.0	 0.0	 0.0	 0.0	 0.0	 0.0	 0.0	 0.0	 0.0	 0.0	 0.0	 0.0;
	124	 187.5	 50.0	 135.0	 -35.0	 1.09093	 253.9	 1	 215.0	 160.0	 0.0	 0.0	 0.0	 0.0	 0.0	 0.0	 0.0	 0.0	 0.0	 0.0	 0.0;
	125	 182.5	 52.5	 140.0	 -35.0	 1.09091	 265.0	 1	 225.0	 140.0	 0.0	 0.0	 0.0	 0.0	 0.0	 0.0	 0.0	 0.0	 0.0	 0.0	 0.0;
	125	 187.5	 50.0	 135.0	 -35.0	 1.09091	 253.9	 1	 215.0	 160.0	 0.0	 0.0	 0.0	 0.0	 0.0	 0.0	 0.0	 0.0	 0.0	 0.0	 0.0;
	126	 182.5	 50.0	 140.0	 -40.0	 1.02511	 265.0	 1	 225.0	 140.0	 0.0	 0.0	 0.0	 0.0	 0.0	 0.0	 0.0	 0.0	 0.0	 0.0	 0.0;
	126	 190.0	 48.5	 137.0	 -40.0	 1.02511	 259.2	 0	 220.0	 160.0	 0.0	 0.0	 0.0	 0.0	 0.0	 0.0	 0.0	 0.0	 0.0	 0.0	 0.0;
	131	 62.5	 1.0	 40.0	 -38.0	 1.08591	 131.2	 1	 125.0	 0.0	 0.0	 0.0	 0.0	 0.0	 0.0	 0.0	 0.0	 0.0	 0.0	 0.0	 0.0;
	131	 62.5	 1.0	 40.0	 -38.0	 1.08591	 131.2	 0	 125.0	 0.0	 0.0	 0.0	 0.0	 0.0	 0.0	 0.0	 0.0	 0.0	 0.0	 0.0	 0.0;
	132	 62.5	 1.0	 40.0	 -38.0	 1.08371	 131.2	 0	 125.0	 0.0	 0.0	 0.0	 0.0	 0.0	 0.0	 0.0	 0.0	 0.0	 0.0	 0.0	 0.0;
	132	 62.5	 1.0	 40.0	 -38.0	 1.08371	 131.2	 0	 125.0	 0.0	 0.0	 0.0	 0.0	 0.0	 0.0	 0.0	 0.0	 0.0	 0.0	 0.0	 0.0;
	133	 110.0	 45.0	 90.0	 0.0	 1.09091	 150.0	 0	 120.0	 100.0	 0.0	 0.0	 0.0	 0.0	 0.0	 0.0	 0.0	 0.0	 0.0	 0.0	 0.0;
	133	 110.0	 45.0	 90.0	 0.0	 1.09091	 150.0	 1	 120.0	 100.0	 0.0	 0.0	 0.0	 0.0	 0.0	 0.0	 0.0	 0.0	 0.0	 0.0	 0.0;
	134	 110.0	 45.0	 90.0	 0.0	 1.09091	 150.0	 1	 120.0	 100.0	 0.0	 0.0	 0.0	 0.0	 0.0	 0.0	 0.0	 0.0	 0.0	 0.0	 0.0;
	145	 40.0	 6.0	 12.0	 0.0	 1.08954	 51.4	 0	 50.0	 30.0	 0.0	 0.0	 0.0	 0.0	 0.0	 0.0	 0.0	 0.0	 0.0	 0.0	 0.0;
	145	 40.0	 6.0	 12.0	 0.0	 1.08954	 51.4	 0	 50.0	 30.0	 0.0	 0.0	 0.0	 0.0	 0.0	 0.0	 0.0	 0.0	 0.0	 0.0	 0.0;
	146	 105.0	 45.0	 90.0	 0.0	 1.08953	 150.0	 0	 120.0	 90.0	 0.0	 0.0	 0.0	 0.0	 0.0	 0.0	 0.0	 0.0	 0.0	 0.0	 0.0;
	147	 156.0	 50.5	 149.0	 -48.0	 1.08582	 267.4	 0	 222.0	 90.0	 0.0	 0.0	 0.0	 0.0	 0.0	 0.0	 0.0	 0.0	 0.0	 0.0	 0.0;
	147	 170.0	 50.5	 149.0	 -48.0	 1.08582	 253.4	 0	 205.0	 135.0	 0.0	 0.0	 0.0	 0.0	 0.0	 0.0	 0.0	 0.0	 0.0	 0.0	 0.0;
	147	 170.0	 50.5	 149.0	 -48.0	 1.08582	 253.4	 0	 205.0	 135.0	 0.0	 0.0	 0.0	 0.0	 0.0	 0.0	 0.0	 0.0	 0.0	 0.0	 0.0;
	147	 156.0	 50.5	 149.0	 -48.0	 1.08582	 267.4	 1	 222.0	 90.0	 0.0	 0.0	 0.0	 0.0	 0.0	 0.0	 0.0	 0.0	 0.0	 0.0	 0.0;
	149	 156.0	 50.0	 123.0	 -23.0	 1.02501	 253.8	 1	 222.0	 90.0	 0.0	 0.0	 0.0	 0.0	 0.0	 0.0	 0.0	 0.0	 0.0	 0.0	 0.0;
	150	 156.0	 50.5	 149.0	 -48.0	 1.025	 267.4	 1	 222.0	 90.0	 0.0	 0.0	 0.0	 0.0	 0.0	 0.0	 0.0	 0.0	 0.0	 0.0	 0.0;
	150	 156.0	 50.0	 123.0	 -23.0	 1.025	 253.8	 0	 222.0	 90.0	 0.0	 0.0	 0.0	 0.0	 0.0	 0.0	 0.0	 0.0	 0.0	 0.0	 0.0;
	154	 164.5	 48.0	 149.0	 -53.0	 1.09091	 278.3	 1	 235.0	 94.0	 0.0	 0.0	 0.0	 0.0	 0.0	 0.0	 0.0	 0.0	 0.0	 0.0	 0.0;
	154	 164.5	 48.0	 149.0	 -53.0	 1.09091	 278.3	 0	 235.0	 94.0	 0.0	 0.0	 0.0	 0.0	 0.0	 0.0	 0.0	 0.0	 0.0	 0.0	 0.0;
	154	 182.5	 60.0	 120.0	 0.0	 1.09091	 287.3	 1	 261.0	 104.0	 0.0	 0.0	 0.0	 0.0	 0.0	 0.0	 0.0	 0.0	 0.0	 0.0	 0.0;
	154	 182.5	 46.0	 132.0	 -40.0	 1.09091	 292.5	 0	 261.0	 104.0	 0.0	 0.0	 0.0	 0.0	 0.0	 0.0	 0.0	 0.0	 0.0	 0.0	 0.0;
	155	 182.5	 60.0	 120.0	 0.0	 1.09091	 287.3	 0	 261.0	 104.0	 0.0	 0.0	 0.0	 0.0	 0.0	 0.0	 0.0	 0.0	 0.0	 0.0	 0.0;
	155	 167.5	 47.5	 117.0	 -22.0	 1.09091	 236.0	 1	 205.0	 130.0	 0.0	 0.0	 0.0	 0.0	 0.0	 0.0	 0.0	 0.0	 0.0	 0.0	 0.0;
	155	 163.0	 44.5	 109.0	 -20.0	 1.09091	 233.1	 1	 206.0	 120.0	 0.0	 0.0	 0.0	 0.0	 0.0	 0.0	 0.0	 0.0	 0.0	 0.0	 0.0;
	155	 163.0	 44.5	 109.0	 -20.0	 1.09091	 233.1	 0	 206.0	 120.0	 0.0	 0.0	 0.0	 0.0	 0.0	 0.0	 0.0	 0.0	 0.0	 0.0	 0.0;
	157	 163.0	 44.5	 109.0	 -20.0	 1.00076	 233.1	 1	 206.0	 120.0	 0.0	 0.0	 0.0	 0.0	 0.0	 0.0	 0.0	 0.0	 0.0	 0.0	 0.0;
	163	 175.0	 40.5	 104.0	 -23.0	 1.09091	 225.4	 0	 200.0	 150.0	 0.0	 0.0	 0.0	 0.0	 0.0	 0.0	 0.0	 0.0	 0.0	 0.0	 0.0;
	163	 175.0	 40.5	 104.0	 -23.0	 1.09091	 225.4	 1	 200.0	 150.0	 0.0	 0.0	 0.0	 0.0	 0.0	 0.0	 0.0	 0.0	 0.0	 0.0	 0.0;
	164	 175.0	 40.5	 104.0	 -23.0	 1.09091	 225.4	 1	 200.0	 150.0	 0.0	 0.0	 0.0	 0.0	 0.0	 0.0	 0.0	 0.0	 0.0	 0.0	 0.0;
	164	 175.0	 40.5	 104.0	 -23.0	 1.09091	 225.4	 1	 200.0	 150.0	 0.0	 0.0	 0.0	 0.0	 0.0	 0.0	 0.0	 0.0	 0.0	 0.0	 0.0;
	179	 170.0	 55.0	 110.0	 0.0	 1.09091	 219.5	 1	 170.0	 170.0	 0.0	 0.0	 0.0	 0.0	 0.0	 0.0	 0.0	 0.0	 0.0	 0.0	 0.0;
	204	 89.5	 25.0	 110.0	 -60.0	 1.025	 210.1	 1	 179.0	 0.0	 0.0	 0.0	 0.0	 0.0	 0.0	 0.0	 0.0	 0.0	 0.0	 0.0	 0.0;
	204	 89.5	 25.0	 110.0	 -60.0	 1.025	 210.1	 1	 179.0	 0.0	 0.0	 0.0	 0.0	 0.0	 0.0	 0.0	 0.0	 0.0	 0.0	 0.0	 0.0;
	204	 89.5	 25.0	 110.0	 -60.0	 1.025	 210.1	 1	 179.0	 0.0	 0.0	 0.0	 0.0	 0.0	 0.0	 0.0	 0.0	 0.0	 0.0	 0.0	 0.0;
	205	 89.5	 25.0	 110.0	 -60.0	 1.025	 210.1	 1	 179.0	 0.0	 0.0	 0.0	 0.0	 0.0	 0.0	 0.0	 0.0	 0.0	 0.0	 0.0	 0.0;
	214	 35.0	 10.0	 20.0	 0.0	 1.09209	 58.5	 1	 35.0	 35.0	 0.0	 0.0	 0.0	 0.0	 0.0	 0.0	 0.0	 0.0	 0.0	 0.0	 0.0;
	214	 0.0	 10.0	 20.0	 0.0	 1.09209	 53.9	 0	 0.0	 0.0	 0.0	 0.0	 0.0	 0.0	 0.0	 0.0	 0.0	 0.0	 0.0	 0.0	 0.0;
	214	 0.0	 10.0	 20.0	 0.0	 1.09209	 53.9	 0	 0.0	 0.0	 0.0	 0.0	 0.0	 0.0	 0.0	 0.0	 0.0	 0.0	 0.0	 0.0	 0.0;
	214	 10.0	 10.0	 20.0	 0.0	 1.09209	 30.5	 1	 10.0	 10.0	 0.0	 0.0	 0.0	 0.0	 0.0	 0.0	 0.0	 0.0	 0.0	 0.0	 0.0;
	220	 1.55	 0.5	 1.0	 0.0	 1.08853	 2.3	 1	 1.55	 1.55	 0.0	 0.0	 0.0	 0.0	 0.0	 0.0	 0.0	 0.0	 0.0	 0.0	 0.0;
	221	 1.55	 0.5	 1.0	 0.0	 1.07119	 2.3	 1	 1.55	 1.55	 0.0	 0.0	 0.0	 0.0	 0.0	 0.0	 0.0	 0.0	 0.0	 0.0	 0.0;
	239	 7.0	 3.0	 6.0	 0.0	 1.05821	 9.8	 1	 7.0	 7.0	 0.0	 0.0	 0.0	 0.0	 0.0	 0.0	 0.0	 0.0	 0.0	 0.0	 0.0;
	246	 330.0	 85.5	 190.0	 -19.0	 1.03937	 415.9	 1	 370.0	 290.0	 0.0	 0.0	 0.0	 0.0	 0.0	 0.0	 0.0	 0.0	 0.0	 0.0	 0.0;
	309	 0.0	 3.5	 7.0	 0.0	 1.08081	 27.9	 0	 0.0	 0.0	 0.0	 0.0	 0.0	 0.0	 0.0	 0.0	 0.0	 0.0	 0.0	 0.0	 0.0;
	309	 0.0	 3.5	 7.0	 0.0	 1.08081	 27.9	 0	 0.0	 0.0	 0.0	 0.0	 0.0	 0.0	 0.0	 0.0	 0.0	 0.0	 0.0	 0.0	 0.0;
	309	 11.0	 5.5	 7.0	 4.0	 1.08081	 30.8	 1	 11.0	 11.0	 0.0	 0.0	 0.0	 0.0	 0.0	 0.0	 0.0	 0.0	 0.0	 0.0	 0.0;
	309	 0.0	 3.5	 7.0	 0.0	 1.08081	 27.9	 0	 0.0	 0.0	 0.0	 0.0	 0.0	 0.0	 0.0	 0.0	 0.0	 0.0	 0.0	 0.0	 0.0;
	309	 0.0	 3.0	 6.0	 0.0	 1.08081	 27.7	 0	 0.0	 0.0	 0.0	 0.0	 0.0	 0.0	 0.0	 0.0	 0.0	 0.0	 0.0	 0.0	 0.0;
	309	 0.0	 3.5	 7.0	 0.0	 1.08081	 27.9	 0	 0.0	 0.0	 0.0	 0.0	 0.0	 0.0	 0.0	 0.0	 0.0	 0.0	 0.0	 0.0	 0.0;
	309	 0.0	 3.5	 7.0	 0.0	 1.08081	 27.9	 0	 0.0	 0.0	 0.0	 0.0	 0.0	 0.0	 0.0	 0.0	 0.0	 0.0	 0.0	 0.0	 0.0;
	310	 15.0	 7.5	 15.0	 0.0	 1.08142	 36.7	 1	 15.0	 15.0	 0.0	 0.0	 0.0	 0.0	 0.0	 0.0	 0.0	 0.0	 0.0	 0.0	 0.0;
	310	 0.0	 7.5	 15.0	 0.0	 1.08142	 57.0	 0	 0.0	 0.0	 0.0	 0.0	 0.0	 0.0	 0.0	 0.0	 0.0	 0.0	 0.0	 0.0	 0.0;
	311	 15.0	 7.5	 15.0	 0.0	 1.0633	 36.7	 1	 15.0	 15.0	 0.0	 0.0	 0.0	 0.0	 0.0	 0.0	 0.0	 0.0	 0.0	 0.0	 0.0;
	311	 0.0	 7.5	 15.0	 0.0	 1.0633	 57.0	 0	 0.0	 0.0	 0.0	 0.0	 0.0	 0.0	 0.0	 0.0	 0.0	 0.0	 0.0	 0.0	 0.0;
	313	 30.0	 10.0	 20.0	 0.0	 1.08629	 53.9	 1	 30.0	 30.0	 0.0	 0.0	 0.0	 0.0	 0.0	 0.0	 0.0	 0.0	 0.0	 0.0	 0.0;
	313	 0.0	 10.0	 20.0	 0.0	 1.08629	 53.9	 0	 0.0	 0.0	 0.0	 0.0	 0.0	 0.0	 0.0	 0.0	 0.0	 0.0	 0.0	 0.0	 0.0;
	314	 0.0	 20.0	 40.0	 0.0	 1.07946	 107.7	 0	 0.0	 0.0	 0.0	 0.0	 0.0	 0.0	 0.0	 0.0	 0.0	 0.0	 0.0	 0.0	 0.0;
	322	 2.5	 1.5	 3.0	 0.0	 1.08468	 4.1	 1	 2.5	 2.5	 0.0	 0.0	 0.0	 0.0	 0.0	 0.0	 0.0	 0.0	 0.0	 0.0	 0.0;
	365	 43.25	 6.0	 12.0	 0.0	 1.08196	 47.8	 1	 43.25	 43.25	 0.0	 0.0	 0.0	 0.0	 0.0	 0.0	 0.0	 0.0	 0.0	 0.0	 0.0;
	366	 43.25	 6.0	 12.0	 0.0	 1.06579	 47.8	 1	 43.25	 43.25	 0.0	 0.0	 0.0	 0.0	 0.0	 0.0	 0.0	 0.0	 0.0	 0.0	 0.0;
	367	 43.25	 6.0	 12.0	 0.0	 1.08899	 47.8	 1	 43.25	 43.25	 0.0	 0.0	 0.0	 0.0	 0.0	 0.0	 0.0	 0.0	 0.0	 0.0	 0.0;
	368	 43.25	 6.0	 12.0	 0.0	 1.08537	 47.8	 1	 43.25	 43.25	 0.0	 0.0	 0.0	 0.0	 0.0	 0.0	 0.0	 0.0	 0.0	 0.0	 0.0;
	385	 175.0	 45.5	 138.0	 -47.0	 1.09091	 251.3	 1	 210.0	 140.0	 0.0	 0.0	 0.0	 0.0	 0.0	 0.0	 0.0	 0.0	 0.0	 0.0	 0.0;
	385	 18.5	 5.0	 10.0	 0.0	 1.09091	 26.9	 0	 25.0	 12.0	 0.0	 0.0	 0.0	 0.0	 0.0	 0.0	 0.0	 0.0	 0.0	 0.0	 0.0;
	386	 13.5	 5.0	 10.0	 0.0	 1.0782	 19.7	 1	 17.0	 10.0	 0.0	 0.0	 0.0	 0.0	 0.0	 0.0	 0.0	 0.0	 0.0	 0.0	 0.0;
	443	 1.5	 1.0	 2.0	 0.0	 1.04966	 3.6	 1	 1.5	 1.5	 0.0	 0.0	 0.0	 0.0	 0.0	 0.0	 0.0	 0.0	 0.0	 0.0	 0.0;
	452	 5.21	 1.0	 2.0	 0.0	 1.07378	 6.1	 1	 5.21	 5.21	 0.0	 0.0	 0.0	 0.0	 0.0	 0.0	 0.0	 0.0	 0.0	 0.0	 0.0;
	452	 0.0	 1.0	 2.0	 0.0	 1.07378	 6.1	 0	 0.0	 0.0	 0.0	 0.0	 0.0	 0.0	 0.0	 0.0	 0.0	 0.0	 0.0	 0.0	 0.0;
	485	 1.4	 0.35	 0.7	 0.0	 1.05018	 1.7	 1	 1.4	 1.4	 0.0	 0.0	 0.0	 0.0	 0.0	 0.0	 0.0	 0.0	 0.0	 0.0	 0.0;
	536	 40.0	 7.0	 14.0	 0.0	 1.06099	 53.9	 1	 40.0	 40.0	 0.0	 0.0	 0.0	 0.0	 0.0	 0.0	 0.0	 0.0	 0.0	 0.0	 0.0;
	536	 0.0	 7.0	 14.0	 0.0	 1.06099	 34.9	 0	 0.0	 0.0	 0.0	 0.0	 0.0	 0.0	 0.0	 0.0	 0.0	 0.0	 0.0	 0.0	 0.0;
	536	 0.0	 7.0	 14.0	 0.0	 1.06099	 34.0	 0	 0.0	 0.0	 0.0	 0.0	 0.0	 0.0	 0.0	 0.0	 0.0	 0.0	 0.0	 0.0	 0.0;
	536	 0.0	 7.0	 14.0	 0.0	 1.06099	 105.9	 0	 0.0	 0.0	 0.0	 0.0	 0.0	 0.0	 0.0	 0.0	 0.0	 0.0	 0.0	 0.0	 0.0;
	536	 0.0	 7.0	 14.0	 0.0	 1.06099	 105.9	 0	 0.0	 0.0	 0.0	 0.0	 0.0	 0.0	 0.0	 0.0	 0.0	 0.0	 0.0	 0.0	 0.0;
	537	 25.0	 8.75	 17.5	 0.0	 1.05485	 36.5	 1	 25.0	 25.0	 0.0	 0.0	 0.0	 0.0	 0.0	 0.0	 0.0	 0.0	 0.0	 0.0	 0.0;
	537	 25.0	 8.75	 17.5	 0.0	 1.05485	 35.6	 1	 25.0	 25.0	 0.0	 0.0	 0.0	 0.0	 0.0	 0.0	 0.0	 0.0	 0.0	 0.0	 0.0;
	537	 0.0	 8.75	 17.5	 0.0	 1.05485	 126.2	 0	 0.0	 0.0	 0.0	 0.0	 0.0	 0.0	 0.0	 0.0	 0.0	 0.0	 0.0	 0.0	 0.0;
	537	 0.0	 8.75	 17.5	 0.0	 1.05485	 106.4	 0	 0.0	 0.0	 0.0	 0.0	 0.0	 0.0	 0.0	 0.0	 0.0	 0.0	 0.0	 0.0	 0.0;
	551	 1.4	 0.35	 0.7	 0.0	 1.05264	 1.7	 1	 1.4	 1.4	 0.0	 0.0	 0.0	 0.0	 0.0	 0.0	 0.0	 0.0	 0.0	 0.0	 0.0;
	559	 30.0	 2.5	 5.0	 0.0	 1.05731	 34.4	 1	 30.0	 30.0	 0.0	 0.0	 0.0	 0.0	 0.0	 0.0	 0.0	 0.0	 0.0	 0.0	 0.0;
	559	 0.0	 2.5	 5.0	 0.0	 1.05731	 28.4	 0	 0.0	 0.0	 0.0	 0.0	 0.0	 0.0	 0.0	 0.0	 0.0	 0.0	 0.0	 0.0	 0.0;
	559	 0.0	 2.5	 5.0	 0.0	 1.05731	 26.5	 0	 0.0	 0.0	 0.0	 0.0	 0.0	 0.0	 0.0	 0.0	 0.0	 0.0	 0.0	 0.0	 0.0;
	559	 0.0	 2.5	 5.0	 0.0	 1.05731	 30.4	 0	 0.0	 0.0	 0.0	 0.0	 0.0	 0.0	 0.0	 0.0	 0.0	 0.0	 0.0	 0.0	 0.0;
	559	 0.0	 2.5	 5.0	 0.0	 1.05731	 34.4	 0	 0.0	 0.0	 0.0	 0.0	 0.0	 0.0	 0.0	 0.0	 0.0	 0.0	 0.0	 0.0	 0.0;
	560	 30.0	 2.5	 5.0	 0.0	 1.05563	 34.4	 1	 30.0	 30.0	 0.0	 0.0	 0.0	 0.0	 0.0	 0.0	 0.0	 0.0	 0.0	 0.0	 0.0;
	560	 0.0	 2.5	 5.0	 0.0	 1.05563	 34.4	 0	 0.0	 0.0	 0.0	 0.0	 0.0	 0.0	 0.0	 0.0	 0.0	 0.0	 0.0	 0.0	 0.0;
	560	 0.0	 2.5	 5.0	 0.0	 1.05563	 26.5	 0	 0.0	 0.0	 0.0	 0.0	 0.0	 0.0	 0.0	 0.0	 0.0	 0.0	 0.0	 0.0	 0.0;
	560	 0.0	 2.5	 5.0	 0.0	 1.05563	 34.4	 0	 0.0	 0.0	 0.0	 0.0	 0.0	 0.0	 0.0	 0.0	 0.0	 0.0	 0.0	 0.0	 0.0;
	573	 1.0	 2.0	 4.0	 0.0	 1.07878	 8.9	 1	 1.0	 1.0	 0.0	 0.0	 0.0	 0.0	 0.0	 0.0	 0.0	 0.0	 0.0	 0.0	 0.0;
	626	 78.0	 15.0	 30.0	 0.0	 1.09062	 97.7	 1	 78.0	 78.0	 0.0	 0.0	 0.0	 0.0	 0.0	 0.0	 0.0	 0.0	 0.0	 0.0	 0.0;
	626	 30.0	 15.0	 30.0	 0.0	 1.09062	 46.8	 1	 30.0	 30.0	 0.0	 0.0	 0.0	 0.0	 0.0	 0.0	 0.0	 0.0	 0.0	 0.0	 0.0;
	664	 177.5	 55.5	 145.0	 -34.0	 1.09109	 267.7	 1	 225.0	 130.0	 0.0	 0.0	 0.0	 0.0	 0.0	 0.0	 0.0	 0.0	 0.0	 0.0	 0.0;
	665	 177.5	 55.5	 145.0	 -34.0	 1.09081	 267.7	 0	 225.0	 130.0	 0.0	 0.0	 0.0	 0.0	 0.0	 0.0	 0.0	 0.0	 0.0	 0.0	 0.0;
	685	 150.0	 15.0	 30.0	 0.0	 1.0956	 182.5	 1	 150.0	 150.0	 0.0	 0.0	 0.0	 0.0	 0.0	 0.0	 0.0	 0.0	 0.0	 0.0	 0.0;
	685	 50.0	 15.0	 30.0	 0.0	 1.0956	 77.5	 1	 50.0	 50.0	 0.0	 0.0	 0.0	 0.0	 0.0	 0.0	 0.0	 0.0	 0.0	 0.0	 0.0;
	691	 2.43	 0.9	 1.8	 0.0	 1.08826	 3.1	 1	 2.43	 2.43	 0.0	 0.0	 0.0	 0.0	 0.0	 0.0	 0.0	 0.0	 0.0	 0.0	 0.0;
	716	 1.47	 0.65	 1.3	 0.0	 1.0787	 10.1	 1	 1.47	 1.47	 0.0	 0.0	 0.0	 0.0	 0.0	 0.0	 0.0	 0.0	 0.0	 0.0	 0.0;
	740	 177.0	 57.0	 130.0	 -16.0	 1.09091	 259.9	 1	 225.0	 129.0	 0.0	 0.0	 0.0	 0.0	 0.0	 0.0	 0.0	 0.0	 0.0	 0.0	 0.0;
	763	 86.0	 15.0	 30.0	 0.0	 1.07793	 105.4	 1	 86.0	 86.0	 0.0	 0.0	 0.0	 0.0	 0.0	 0.0	 0.0	 0.0	 0.0	 0.0	 0.0;
	792	 1.0	 0.5	 1.0	 0.0	 1.05313	 8.4	 1	 1.0	 1.0	 0.0	 0.0	 0.0	 0.0	 0.0	 0.0	 0.0	 0.0	 0.0	 0.0	 0.0;
	796	 36.55	 11.5	 23.0	 0.0	 1.06122	 71.9	 1	 68.1	 5.0	 0.0	 0.0	 0.0	 0.0	 0.0	 0.0	 0.0	 0.0	 0.0	 0.0	 0.0;
	796	 36.55	 11.5	 23.0	 0.0	 1.06122	 71.9	 0	 68.1	 5.0	 0.0	 0.0	 0.0	 0.0	 0.0	 0.0	 0.0	 0.0	 0.0	 0.0	 0.0;
	796	 23.5	 5.5	 11.0	 0.0	 1.06122	 32.9	 0	 31.0	 16.0	 0.0	 0.0	 0.0	 0.0	 0.0	 0.0	 0.0	 0.0	 0.0	 0.0	 0.0;
	796	 23.5	 5.0	 10.0	 0.0	 1.06122	 32.6	 0	 31.0	 16.0	 0.0	 0.0	 0.0	 0.0	 0.0	 0.0	 0.0	 0.0	 0.0	 0.0	 0.0;
	807	 104.5	 5.0	 10.0	 0.0	 1.08198	 125.4	 0	 125.0	 84.0	 0.0	 0.0	 0.0	 0.0	 0.0	 0.0	 0.0	 0.0	 0.0	 0.0	 0.0;
	808	 108.5	 5.0	 10.0	 0.0	 1.08715	 125.4	 1	 125.0	 92.0	 0.0	 0.0	 0.0	 0.0	 0.0	 0.0	 0.0	 0.0	 0.0	 0.0	 0.0;
	845	 15.0	 4.05	 8.1	 0.0	 1.07142	 33.0	 1	 15.0	 15.0	 0.0	 0.0	 0.0	 0.0	 0.0	 0.0	 0.0	 0.0	 0.0	 0.0	 0.0;
	845	 15.0	 4.05	 8.1	 0.0	 1.07142	 33.0	 1	 15.0	 15.0	 0.0	 0.0	 0.0	 0.0	 0.0	 0.0	 0.0	 0.0	 0.0	 0.0	 0.0;
	845	 0.0	 0.0	 0.0	 0.0	 1.07142	 19.0	 0	 0.0	 0.0	 0.0	 0.0	 0.0	 0.0	 0.0	 0.0	 0.0	 0.0	 0.0	 0.0	 0.0;
	845	 0.0	 0.0	 0.0	 0.0	 1.07142	 19.0	 0	 0.0	 0.0	 0.0	 0.0	 0.0	 0.0	 0.0	 0.0	 0.0	 0.0	 0.0	 0.0	 0.0;
	877	 35.0	 20.6	 41.2	 0.0	 1.08527	 87.7	 1	 35.0	 35.0	 0.0	 0.0	 0.0	 0.0	 0.0	 0.0	 0.0	 0.0	 0.0	 0.0	 0.0;
	900	 0.0	 17.5	 45.0	 -10.0	 1.07146	 65.8	 0	 0.0	 0.0	 0.0	 0.0	 0.0	 0.0	 0.0	 0.0	 0.0	 0.0	 0.0	 0.0	 0.0;
	900	 50.0	 17.5	 45.0	 -10.0	 1.07146	 71.1	 1	 50.0	 50.0	 0.0	 0.0	 0.0	 0.0	 0.0	 0.0	 0.0	 0.0	 0.0	 0.0	 0.0;
	900	 0.0	 17.5	 45.0	 -10.0	 1.07146	 71.1	 0	 0.0	 0.0	 0.0	 0.0	 0.0	 0.0	 0.0	 0.0	 0.0	 0.0	 0.0	 0.0	 0.0;
	975	 0.0	 35.0	 110.0	 -40.0	 1.07686	 162.2	 0	 0.0	 0.0	 0.0	 0.0	 0.0	 0.0	 0.0	 0.0	 0.0	 0.0	 0.0	 0.0	 0.0;
	976	 100.0	 35.0	 110.0	 -40.0	 1.08609	 162.2	 1	 100.0	 100.0	 0.0	 0.0	 0.0	 0.0	 0.0	 0.0	 0.0	 0.0	 0.0	 0.0	 0.0;
	980	 0.0	 0.0	 0.0	 0.0	 1.08643	 16.8	 0	 0.0	 0.0	 0.0	 0.0	 0.0	 0.0	 0.0	 0.0	 0.0	 0.0	 0.0	 0.0	 0.0;
	1001	 303.0	 104.0	 240.0	 -32.0	 1.10276	 454.5	 1	 386.0	 220.0	 0.0	 0.0	 0.0	 0.0	 0.0	 0.0	 0.0	 0.0	 0.0	 0.0	 0.0;
	1002	 295.0	 98.5	 227.0	 -30.0	 1.09091	 434.1	 1	 370.0	 220.0	 0.0	 0.0	 0.0	 0.0	 0.0	 0.0	 0.0	 0.0	 0.0	 0.0	 0.0;
	1006	 6.0	 0.7235	 1.447	 0.0	 1.08426	 7.1	 1	 6.0	 6.0	 0.0	 0.0	 0.0	 0.0	 0.0	 0.0	 0.0	 0.0	 0.0	 0.0	 0.0;
	1005	 4.0	 0.2235	 0.447	 0.0	 1.08426	 4.0	 1	 4.0	 4.0	 0.0	 0.0	 0.0	 0.0	 0.0	 0.0	 0.0	 0.0	 0.0	 0.0	 0.0;
	1006	 4.0	 0.2235	 0.447	 0.0	 1.08426	 5.0	 1	 4.0	 4.0	 0.0	 0.0	 0.0	 0.0	 0.0	 0.0	 0.0	 0.0	 0.0	 0.0	 0.0;
	1006	 0.0	 0.0	 0.0	 0.0	 1.08426	 6.0	 0	 0.0	 0.0	 0.0	 0.0	 0.0	 0.0	 0.0	 0.0	 0.0	 0.0	 0.0	 0.0	 0.0;
	1007	 0.0	 35.0	 110.0	 -40.0	 1.08332	 174.1	 0	 0.0	 0.0	 0.0	 0.0	 0.0	 0.0	 0.0	 0.0	 0.0	 0.0	 0.0	 0.0	 0.0;
	1013	 15.0	 2.4	 4.8	 0.0	 1.07931	 20.6	 1	 15.0	 15.0	 0.0	 0.0	 0.0	 0.0	 0.0	 0.0	 0.0	 0.0	 0.0	 0.0	 0.0;
	1013	 0.0	 0.0	 0.0	 0.0	 1.07931	 12.8	 0	 0.0	 0.0	 0.0	 0.0	 0.0	 0.0	 0.0	 0.0	 0.0	 0.0	 0.0	 0.0	 0.0;
	1013	 0.0	 0.0	 0.0	 0.0	 1.07931	 12.5	 0	 0.0	 0.0	 0.0	 0.0	 0.0	 0.0	 0.0	 0.0	 0.0	 0.0	 0.0	 0.0	 0.0;
	1015	 0.0	 0.0	 0.0	 0.0	 1.07594	 20.0	 0	 0.0	 0.0	 0.0	 0.0	 0.0	 0.0	 0.0	 0.0	 0.0	 0.0	 0.0	 0.0	 0.0;
	1015	 0.0	 0.0	 0.0	 0.0	 1.07594	 19.0	 0	 0.0	 0.0	 0.0	 0.0	 0.0	 0.0	 0.0	 0.0	 0.0	 0.0	 0.0	 0.0	 0.0;
	1024	 12.0	 13.5	 18.0	 9.0	 1.05936	 30.0	 1	 12.0	 12.0	 0.0	 0.0	 0.0	 0.0	 0.0	 0.0	 0.0	 0.0	 0.0	 0.0	 0.0;
	1025	 0.0	 13.5	 18.0	 9.0	 1.05941	 30.0	 0	 0.0	 0.0	 0.0	 0.0	 0.0	 0.0	 0.0	 0.0	 0.0	 0.0	 0.0	 0.0	 0.0;
	1026	 0.0	 12.25	 14.0	 10.5	 1.05936	 32.2	 0	 0.0	 0.0	 0.0	 0.0	 0.0	 0.0	 0.0	 0.0	 0.0	 0.0	 0.0	 0.0	 0.0;
	1113	 0.0	 27.15	 37.5	 16.8	 1.08345	 62.5	 0	 0.0	 0.0	 0.0	 0.0	 0.0	 0.0	 0.0	 0.0	 0.0	 0.0	 0.0	 0.0	 0.0;
	1114	 0.0	 22.5	 37.5	 7.5	 1.07469	 62.5	 0	 0.0	 0.0	 0.0	 0.0	 0.0	 0.0	 0.0	 0.0	 0.0	 0.0	 0.0	 0.0	 0.0;
	1113	 50.0	 22.5	 37.5	 7.5	 1.08345	 62.5	 1	 50.0	 50.0	 0.0	 0.0	 0.0	 0.0	 0.0	 0.0	 0.0	 0.0	 0.0	 0.0	 0.0;
	1115	 0.0	 27.15	 37.5	 16.8	 1.08094	 62.5	 0	 0.0	 0.0	 0.0	 0.0	 0.0	 0.0	 0.0	 0.0	 0.0	 0.0	 0.0	 0.0	 0.0;
	1152	 17.0	 2.6255	 5.251	 0.0	 1.06515	 30.5	 1	 17.0	 17.0	 0.0	 0.0	 0.0	 0.0	 0.0	 0.0	 0.0	 0.0	 0.0	 0.0	 0.0;
	1152	 0.0	 0.0	 0.0	 0.0	 1.06515	 6.0	 0	 0.0	 0.0	 0.0	 0.0	 0.0	 0.0	 0.0	 0.0	 0.0	 0.0	 0.0	 0.0	 0.0;
	1153	 17.0	 2.6255	 5.251	 0.0	 1.06525	 30.5	 1	 17.0	 17.0	 0.0	 0.0	 0.0	 0.0	 0.0	 0.0	 0.0	 0.0	 0.0	 0.0	 0.0;
	1153	 0.0	 0.0	 0.0	 0.0	 1.06525	 25.0	 0	 0.0	 0.0	 0.0	 0.0	 0.0	 0.0	 0.0	 0.0	 0.0	 0.0	 0.0	 0.0	 0.0;
	1154	 16.0	 2.625	 5.25	 0.0	 1.06879	 30.5	 1	 16.0	 16.0	 0.0	 0.0	 0.0	 0.0	 0.0	 0.0	 0.0	 0.0	 0.0	 0.0	 0.0;
	1154	 0.0	 0.0	 0.0	 0.0	 1.06879	 6.0	 0	 0.0	 0.0	 0.0	 0.0	 0.0	 0.0	 0.0	 0.0	 0.0	 0.0	 0.0	 0.0	 0.0;
	1179	 70.0	 26.25	 52.5	 0.0	 1.08436	 87.5	 1	 70.0	 70.0	 0.0	 0.0	 0.0	 0.0	 0.0	 0.0	 0.0	 0.0	 0.0	 0.0	 0.0;
	1180	 0.0	 26.25	 52.5	 0.0	 1.07255	 87.5	 0	 0.0	 0.0	 0.0	 0.0	 0.0	 0.0	 0.0	 0.0	 0.0	 0.0	 0.0	 0.0	 0.0;
	1180	 0.0	 29.4	 42.0	 16.8	 1.07255	 65.3	 0	 0.0	 0.0	 0.0	 0.0	 0.0	 0.0	 0.0	 0.0	 0.0	 0.0	 0.0	 0.0	 0.0;
	1188	 50.0	 0.0	 0.0	 0.0	 1.0801	 50.0	 1	 50.0	 50.0	 0.0	 0.0	 0.0	 0.0	 0.0	 0.0	 0.0	 0.0	 0.0	 0.0	 0.0;
	1246	 10.0	 1.0	 2.0	 0.0	 1.07803	 16.7	 1	 10.0	 10.0	 0.0	 0.0	 0.0	 0.0	 0.0	 0.0	 0.0	 0.0	 0.0	 0.0	 0.0;
	1246	 0.0	 0.0	 0.0	 0.0	 1.07803	 24.0	 0	 0.0	 0.0	 0.0	 0.0	 0.0	 0.0	 0.0	 0.0	 0.0	 0.0	 0.0	 0.0	 0.0;
	1247	 0.0	 0.0	 0.0	 0.0	 1.06772	 14.6	 0	 0.0	 0.0	 0.0	 0.0	 0.0	 0.0	 0.0	 0.0	 0.0	 0.0	 0.0	 0.0	 0.0;
	1247	 0.0	 0.0	 0.0	 0.0	 1.06772	 14.6	 0	 0.0	 0.0	 0.0	 0.0	 0.0	 0.0	 0.0	 0.0	 0.0	 0.0	 0.0	 0.0	 0.0;
...
];

%% generator cost data
%	2	startup	shutdown	n	c(n-1)	...	c0
mpc.gencost = [
	2	 0.0	 0.0	 3	   0.000000	 112.780000	   0.000000;
	2	 0.0	 0.0	 3	   0.000000	 112.780000	   0.000000;
	2	 0.0	 0.0	 3	   0.000000	  76.100000	   0.000000;
	2	 0.0	 0.0	 3	   0.000000	  76.100000	   0.000000;
	2	 0.0	 0.0	 3	   0.000000	  76.100000	   0.000000;
	2	 0.0	 0.0	 3	   0.000000	  76.100000	   0.000000;
	2	 0.0	 0.0	 3	   0.000000	  76.100000	   0.000000;
	2	 0.0	 0.0	 3	   0.000000	  76.100000	   0.000000;
	2	 0.0	 0.0	 3	   0.000000	  76.100000	   0.000000;
	2	 0.0	 0.0	 3	   0.000000	  76.100000	   0.000000;
	2	 0.0	 0.0	 3	   0.000000	  76.100000	   0.000000;
	2	 0.0	 0.0	 3	   0.000000	  76.100000	   0.000000;
	2	 0.0	 0.0	 3	   0.000000	  76.100000	   0.000000;
	2	 0.0	 0.0	 3	   0.000000	 102.050000	   0.000000;
	2	 0.0	 0.0	 3	   0.000000	 102.050000	   0.000000;
	2	 0.0	 0.0	 3	   0.000000	 102.050000	   0.000000;
	2	 0.0	 0.0	 3	   0.000000	 102.050000	   0.000000;
	2	 0.0	 0.0	 3	   0.000000	 102.050000	   0.000000;
	2	 0.0	 0.0	 3	   0.000000	 102.050000	   0.000000;
	2	 0.0	 0.0	 3	   0.000000	 102.050000	   0.000000;
	2	 0.0	 0.0	 3	   0.000000	 102.050000	   0.000000;
	2	 0.0	 0.0	 3	   0.000000	 105.350000	   0.000000;
	2	 0.0	 0.0	 3	   0.000000	 105.350000	   0.000000;
	2	 0.0	 0.0	 3	   0.000000	 105.350000	   0.000000;
	2	 0.0	 0.0	 3	   0.000000	 105.350000	   0.000000;
	2	 0.0	 0.0	 3	   0.000000	 105.350000	   0.000000;
	2	 0.0	 0.0	 3	   0.000000	 105.350000	   0.000000;
	2	 0.0	 0.0	 3	   0.000000	 105.350000	   0.000000;
	2	 0.0	 0.0	 3	   0.000000	   0.000000	   0.000000;
	2	 0.0	 0.0	 3	   0.000000	  95.310000	   0.000000;
	2	 0.0	 0.0	 3	   0.000000	  95.310000	   0.000000;
	2	 0.0	 0.0	 3	   0.000000	  95.310000	   0.000000;
	2	 0.0	 0.0	 3	   0.000000	  95.310000	   0.000000;
	2	 0.0	 0.0	 3	   0.000000	  95.310000	   0.000000;
	2	 0.0	 0.0	 3	   0.000000	  90.030000	   0.000000;
	2	 0.0	 0.0	 3	   0.000000	  90.030000	   0.000000;
	2	 0.0	 0.0	 3	   0.000000	   0.000000	   0.000000;
	2	 0.0	 0.0	 3	   0.000000	   0.000000	   0.000000;
	2	 0.0	 0.0	 3	   0.000000	  92.780000	   0.000000;
	2	 0.0	 0.0	 3	   0.000000	  92.780000	   0.000000;
	2	 0.0	 0.0	 3	   0.000000	  94.090000	   0.000000;
	2	 0.0	 0.0	 3	   0.000000	  94.090000	   0.000000;
	2	 0.0	 0.0	 3	   0.000000	  97.120000	   0.000000;
	2	 0.0	 0.0	 3	   0.000000	  97.120000	   0.000000;
	2	 0.0	 0.0	 3	   0.000000	  99.520000	   0.000000;
	2	 0.0	 0.0	 3	   0.000000	  91.160000	   0.000000;
	2	 0.0	 0.0	 3	   0.000000	  91.160000	   0.000000;
	2	 0.0	 0.0	 3	   0.000000	  91.160000	   0.000000;
	2	 0.0	 0.0	 3	   0.000000	  91.160000	   0.000000;
	2	 0.0	 0.0	 3	   0.000000	  91.160000	   0.000000;
	2	 0.0	 0.0	 3	   0.000000	   0.010000	   0.000000;
	2	 0.0	 0.0	 3	   0.000000	   0.010000	   0.000000;
	2	 0.0	 0.0	 3	   0.000000	   0.010000	   0.000000;
	2	 0.0	 0.0	 3	   0.000000	   0.010000	   0.000000;
	2	 0.0	 0.0	 3	   0.000000	  92.430000	   0.000000;
	2	 0.0	 0.0	 3	   0.000000	  92.430000	   0.000000;
	2	 0.0	 0.0	 3	   0.000000	  92.430000	   0.000000;
	2	 0.0	 0.0	 3	   0.000000	  96.420000	   0.000000;
	2	 0.0	 0.0	 3	   0.000000	  96.420000	   0.000000;
	2	 0.0	 0.0	 3	   0.000000	  96.420000	   0.000000;
	2	 0.0	 0.0	 3	   0.000000	 116.010000	   0.000000;
	2	 0.0	 0.0	 3	   0.000000	 116.010000	   0.000000;
	2	 0.0	 0.0	 3	   0.000000	 116.010000	   0.000000;
	2	 0.0	 0.0	 3	   0.000000	 116.010000	   0.000000;
	2	 0.0	 0.0	 3	   0.000000	 116.010000	   0.000000;
	2	 0.0	 0.0	 3	   0.000000	 116.010000	   0.000000;
	2	 0.0	 0.0	 3	   0.000000	 116.010000	   0.000000;
	2	 0.0	 0.0	 3	   0.000000	  98.840000	   0.000000;
	2	 0.0	 0.0	 3	   0.000000	  98.840000	   0.000000;
	2	 0.0	 0.0	 3	   0.000000	  98.840000	   0.000000;
	2	 0.0	 0.0	 3	   0.000000	  98.840000	   0.000000;
	2	 0.0	 0.0	 3	   0.000000	  98.840000	   0.000000;
	2	 0.0	 0.0	 3	   0.000000	  98.840000	   0.000000;
	2	 0.0	 0.0	 3	   0.000000	  98.840000	   0.000000;
	2	 0.0	 0.0	 3	   0.000000	  98.840000	   0.000000;
	2	 0.0	 0.0	 3	   0.000000	  98.840000	   0.000000;
	2	 0.0	 0.0	 3	   0.000000	  89.220000	   0.000000;
	2	 0.0	 0.0	 3	   0.000000	  89.220000	   0.000000;
	2	 0.0	 0.0	 3	   0.000000	  89.220000	   0.000000;
	2	 0.0	 0.0	 3	   0.000000	  89.220000	   0.000000;
	2	 0.0	 0.0	 3	   0.000000	   0.000000	   0.000000;
	2	 0.0	 0.0	 3	   0.000000	   0.010000	   0.000000;
	2	 0.0	 0.0	 3	   0.000000	   0.010000	   0.000000;
	2	 0.0	 0.0	 3	   0.000000	   0.010000	   0.000000;
	2	 0.0	 0.0	 3	   0.000000	   0.010000	   0.000000;
	2	 0.0	 0.0	 3	   0.000000	   0.000000	   0.000000;
	2	 0.0	 0.0	 3	   0.000000	   0.000000	   0.000000;
	2	 0.0	 0.0	 3	   0.000000	   0.000000	   0.000000;
	2	 0.0	 0.0	 3	   0.000000	   0.000000	   0.000000;
	2	 0.0	 0.0	 3	   0.000000	   0.000000	   0.000000;
	2	 0.0	 0.0	 3	   0.000000	   0.000000	   0.000000;
	2	 0.0	 0.0	 3	   0.000000	   0.000000	   0.000000;
	2	 0.0	 0.0	 3	   0.000000	  76.100000	   0.000000;
	2	 0.0	 0.0	 3	   0.000000	   0.000000	   0.000000;
	2	 0.0	 0.0	 3	   0.000000	   0.000000	   0.000000;
	2	 0.0	 0.0	 3	   0.000000	   0.000000	   0.000000;
	2	 0.0	 0.0	 3	   0.000000	   0.000000	   0.000000;
	2	 0.0	 0.0	 3	   0.000000	   0.000000	   0.000000;
	2	 0.0	 0.0	 3	   0.000000	   0.000000	   0.000000;
	2	 0.0	 0.0	 3	   0.000000	   0.000000	   0.000000;
	2	 0.0	 0.0	 3	   0.000000	   0.000000	   0.000000;
	2	 0.0	 0.0	 3	   0.000000	   0.000000	   0.000000;
	2	 0.0	 0.0	 3	   0.000000	   0.000000	   0.000000;
	2	 0.0	 0.0	 3	   0.000000	   0.000000	   0.000000;
	2	 0.0	 0.0	 3	   0.000000	   0.000000	   0.000000;
	2	 0.0	 0.0	 3	   0.000000	   0.000000	   0.000000;
	2	 0.0	 0.0	 3	   0.000000	   0.000000	   0.000000;
	2	 0.0	 0.0	 3	   0.000000	   0.000000	   0.000000;
	2	 0.0	 0.0	 3	   0.000000	   0.000000	   0.000000;
	2	 0.0	 0.0	 3	   0.000000	   0.000000	   0.000000;
	2	 0.0	 0.0	 3	   0.000000	   0.000000	   0.000000;
	2	 0.0	 0.0	 3	   0.000000	   0.000000	   0.000000;
	2	 0.0	 0.0	 3	   0.000000	 112.780000	   0.000000;
	2	 0.0	 0.0	 3	   0.000000	 112.780000	   0.000000;
	2	 0.0	 0.0	 3	   0.000000	 112.780000	   0.000000;
	2	 0.0	 0.0	 3	   0.000000	   0.000000	   0.000000;
	2	 0.0	 0.0	 3	   0.000000	   0.000000	   0.000000;
	2	 0.0	 0.0	 3	   0.000000	   0.000000	   0.000000;
	2	 0.0	 0.0	 3	   0.000000	   0.000000	   0.000000;
	2	 0.0	 0.0	 3	   0.000000	   0.000000	   0.000000;
	2	 0.0	 0.0	 3	   0.000000	   0.000000	   0.000000;
	2	 0.0	 0.0	 3	   0.000000	   0.000000	   0.000000;
	2	 0.0	 0.0	 3	   0.000000	   0.000000	   0.000000;
	2	 0.0	 0.0	 3	   0.000000	   0.000000	   0.000000;
	2	 0.0	 0.0	 3	   0.000000	   0.000000	   0.000000;
	2	 0.0	 0.0	 3	   0.000000	   0.000000	   0.000000;
	2	 0.0	 0.0	 3	   0.000000	   0.000000	   0.000000;
	2	 0.0	 0.0	 3	   0.000000	   0.000000	   0.000000;
	2	 0.0	 0.0	 3	   0.000000	   0.000000	   0.000000;
	2	 0.0	 0.0	 3	   0.000000	   0.000000	   0.000000;
	2	 0.0	 0.0	 3	   0.000000	   0.000000	   0.000000;
	2	 0.0	 0.0	 3	   0.000000	   0.000000	   0.000000;
	2	 0.0	 0.0	 3	   0.000000	   0.000000	   0.000000;
	2	 0.0	 0.0	 3	   0.000000	   0.000000	   0.000000;
	2	 0.0	 0.0	 3	   0.000000	   0.000000	   0.000000;
	2	 0.0	 0.0	 3	   0.000000	   0.000000	   0.000000;
	2	 0.0	 0.0	 3	   0.000000	   0.000000	   0.000000;
	2	 0.0	 0.0	 3	   0.000000	   0.000000	   0.000000;
	2	 0.0	 0.0	 3	   0.000000	   0.000000	   0.000000;
	2	 0.0	 0.0	 3	   0.000000	   0.000000	   0.000000;
	2	 0.0	 0.0	 3	   0.000000	   0.000000	   0.000000;
	2	 0.0	 0.0	 3	   0.000000	 102.050000	   0.000000;
	2	 0.0	 0.0	 3	   0.000000	 102.050000	   0.000000;
	2	 0.0	 0.0	 3	   0.000000	   0.000000	   0.000000;
	2	 0.0	 0.0	 3	   0.000000	   0.000000	   0.000000;
	2	 0.0	 0.0	 3	   0.000000	   0.000000	   0.000000;
	2	 0.0	 0.0	 3	   0.000000	   0.000000	   0.000000;
	2	 0.0	 0.0	 3	   0.000000	 105.350000	   0.000000;
	2	 0.0	 0.0	 3	   0.000000	   0.000000	   0.000000;
	2	 0.0	 0.0	 3	   0.000000	   0.000000	   0.000000;
	2	 0.0	 0.0	 3	   0.000000	   0.010000	   0.000000;
	2	 0.0	 0.0	 3	   0.000000	   0.010000	   0.000000;
	2	 0.0	 0.0	 3	   0.000000	   0.010000	   0.000000;
	2	 0.0	 0.0	 3	   0.000000	   0.010000	   0.000000;
	2	 0.0	 0.0	 3	   0.000000	 111.630000	   0.000000;
	2	 0.0	 0.0	 3	   0.000000	 111.630000	   0.000000;
	2	 0.0	 0.0	 3	   0.000000	   0.000000	   0.000000;
	2	 0.0	 0.0	 3	   0.000000	   0.000000	   0.000000;
	2	 0.0	 0.0	 3	   0.000000	   0.000000	   0.000000;
	2	 0.0	 0.0	 3	   0.000000	   0.000000	   0.000000;
	2	 0.0	 0.0	 3	   0.000000	   0.000000	   0.000000;
	2	 0.0	 0.0	 3	   0.000000	   0.000000	   0.000000;
	2	 0.0	 0.0	 3	   0.000000	   0.000000	   0.000000;
	2	 0.0	 0.0	 3	   0.000000	   0.000000	   0.000000;
	2	 0.0	 0.0	 3	   0.000000	   0.000000	   0.000000;
	2	 0.0	 0.0	 3	   0.000000	   0.000000	   0.000000;
	2	 0.0	 0.0	 3	   0.000000	   0.000000	   0.000000;
	2	 0.0	 0.0	 3	   0.000000	  90.030000	   0.000000;
	2	 0.0	 0.0	 3	   0.000000	  90.030000	   0.000000;
	2	 0.0	 0.0	 3	   0.000000	   0.000000	   0.000000;
	2	 0.0	 0.0	 3	   0.000000	   0.000000	   0.000000;
	2	 0.0	 0.0	 3	   0.000000	   0.000000	   0.000000;
	2	 0.0	 0.0	 3	   0.000000	   0.000000	   0.000000;
	2	 0.0	 0.0	 3	   0.000000	   0.000000	   0.000000;
	2	 0.0	 0.0	 3	   0.000000	   0.000000	   0.000000;
	2	 0.0	 0.0	 3	   0.000000	   0.000000	   0.000000;
	2	 0.0	 0.0	 3	   0.000000	   0.000000	   0.000000;
	2	 0.0	 0.0	 3	   0.000000	   0.000000	   0.000000;
	2	 0.0	 0.0	 3	   0.000000	   0.000000	   0.000000;
	2	 0.0	 0.0	 3	   0.000000	   0.000000	   0.000000;
	2	 0.0	 0.0	 3	   0.000000	   0.000000	   0.000000;
	2	 0.0	 0.0	 3	   0.000000	   0.000000	   0.000000;
	2	 0.0	 0.0	 3	   0.000000	   0.000000	   0.000000;
	2	 0.0	 0.0	 3	   0.000000	   0.000000	   0.000000;
	2	 0.0	 0.0	 3	   0.000000	   0.000000	   0.000000;
	2	 0.0	 0.0	 3	   0.000000	   0.000000	   0.000000;
	2	 0.0	 0.0	 3	   0.000000	   0.000000	   0.000000;
	2	 0.0	 0.0	 3	   0.000000	   0.000000	   0.000000;
	2	 0.0	 0.0	 3	   0.000000	   0.000000	   0.000000;
	2	 0.0	 0.0	 3	   0.000000	   0.000000	   0.000000;
	2	 0.0	 0.0	 3	   0.000000	   0.000000	   0.000000;
	2	 0.0	 0.0	 3	   0.000000	   0.000000	   0.000000;
	2	 0.0	 0.0	 3	   0.000000	   0.000000	   0.000000;
	2	 0.0	 0.0	 3	   0.000000	   0.000000	   0.000000;
	2	 0.0	 0.0	 3	   0.000000	   0.000000	   0.000000;
	2	 0.0	 0.0	 3	   0.000000	   0.000000	   0.000000;
	2	 0.0	 0.0	 3	   0.000000	   0.000000	   0.000000;
	2	 0.0	 0.0	 3	   0.000000	   0.000000	   0.000000;
	2	 0.0	 0.0	 3	   0.000000	   0.000000	   0.000000;
	2	 0.0	 0.0	 3	   0.000000	   0.000000	   0.000000;
...
];

%% branch data
%	fbus	tbus	r	x	b	rateA	rateB	rateC	ratio	angle	status	angmin	angmax
mpc.branch = [
	7	 8	 0.00064	 0.0305	 0.0	 400.0	 400.0	 400.0	 1.0435	 -0.6	 1	 -7.642431	 7.642431;
	26	 28	 0.00036	 0.02519	 0.0	 500.0	 500.0	 500.0	 1.067	 0.0	 1	 -7.642431	 7.642431;
	27	 29	 0.00036	 0.02519	 0.0	 500.0	 500.0	 500.0	 1.0671	 0.0	 1	 -7.642431	 7.642431;
	39	 41	 0.00034	 0.02097	 0.0	 500.0	 500.0	 500.0	 1.1102	 0.0	 1	 -7.642431	 7.642431;
	42	 45	 0.00034	 0.02097	 0.0	 500.0	 500.0	 500.0	 1.0917	 0.0	 1	 -7.642431	 7.642431;
	54	 56	 0.00081	 0.03	 0.0	 400.0	 400.0	 400.0	 1.0466	 0.0	 1	 -7.642431	 7.642431;
	89	 91	 0.00075	 0.02444	 -0.00832	 330.0	 330.0	 330.0	 1.0553	 0.0	 1	 -7.642431	 7.642431;
	90	 92	 0.00075	 0.02469	 -0.008	 330.0	 330.0	 330.0	 1.0552	 0.0	 1	 -7.642431	 7.642431;
	124	 127	 0.0005	 0.02875	 -0.016	 400.0	 400.0	 400.0	 1.087	 0.0	 1	 -7.642431	 7.642431;
	148	 149	 0.00064	 0.0305	 0.0	 400.0	 400.0	 400.0	 1.0636	 0.0	 1	 -7.642431	 7.642431;
	154	 156	 0.000232	 0.023	 0.0	 500.0	 500.0	 500.0	 1.0953	 0.0	 1	 -7.642431	 7.642431;
	155	 157	 0.000232	 0.023	 0.0	 500.0	 500.0	 500.0	 1.0953	 0.0	 1	 -7.642431	 7.642431;
	168	 170	 0.00035	 0.02375	 0.0	 500.0	 500.0	 500.0	 1.0767	 0.0	 1	 -7.642431	 7.642431;
	182	 183	 0.00059	 0.03093	 0.0	 400.0	 400.0	 400.0	 1.0504	 0.0	 1	 -7.642431	 7.642431;
	189	 191	 0.0004	 0.03	 0.0	 500.0	 500.0	 500.0	 1.0695	 3.6	 1	 -7.642431	 7.642431;
	2726	 156	 0.00031	 0.00338	 0.0992	 1386.0	 1386.0	 1386.0	 0.0	 0.0	 1	 -7.642431	 7.642431;
	2726	 157	 0.00031	 0.00338	 0.0992	 1386.0	 1386.0	 1386.0	 0.0	 0.0	 1	 -7.642431	 7.642431;
	2727	 67	 0.014341	 0.083531	 0.126034	 385.0	 385.0	 385.0	 0.0	 0.0	 1	 -7.642431	 7.642431;
	2725	 75	 0.01219	 0.070659	 0.117418	 412.0	 412.0	 412.0	 0.0	 0.0	 1	 -7.642431	 7.642431;
	2725	 104	 0.011781	 0.07087	 0.116838	 412.0	 412.0	 412.0	 0.0	 0.0	 1	 -7.642431	 7.642431;
	126	 2724	 0.001525	 0.016837	 0.50576	 1386.0	 1386.0	 1386.0	 0.0	 0.0	 1	 -7.642431	 7.642431;
	2728	 147	 0.001651	 0.015909	 0.046948	 316.0	 316.0	 316.0	 0.0	 0.0	 1	 -7.642431	 7.642431;
	2728	 148	 0.001651	 0.015909	 0.046948	 316.0	 316.0	 316.0	 0.0	 0.0	 1	 -7.642431	 7.642431;
	2729	 47	 0.00188	 0.02287	 0.6432	 831.0	 831.0	 831.0	 0.0	 0.0	 1	 -7.642431	 7.642431;
	2729	 48	 0.00188	 0.02287	 0.6432	 831.0	 831.0	 831.0	 0.0	 0.0	 1	 -7.642431	 7.642431;
	81	 2723	 0.002769	 0.031162	 0.89824	 1386.0	 1386.0	 1386.0	 0.0	 0.0	 1	 -7.642431	 7.642431;
	42	 23	 0.01345	 0.081141	 0.141134	 339.0	 339.0	 339.0	 0.0	 0.0	 1	 -7.642431	 7.642431;
	26	 89	 0.009091	 0.062401	 0.111417	 453.0	 453.0	 453.0	 0.0	 0.0	 1	 -7.642431	 7.642431;
	27	 90	 0.00868	 0.06405	 0.096994	 427.0	 427.0	 427.0	 0.0	 0.0	 1	 -7.642431	 7.642431;
	145	 30	 0.016961	 0.123659	 0.196988	 316.0	 316.0	 316.0	 0.0	 0.0	 1	 -7.642431	 7.642431;
	134	 33	 0.00512	 0.02618	 0.029621	 301.0	 301.0	 301.0	 0.0	 0.0	 1	 -7.642431	 7.642431;
	133	 20	 0.01068	 0.061961	 0.094961	 385.0	 385.0	 385.0	 0.0	 0.0	 1	 -7.642431	 7.642431;
	163	 21	 0.014651	 0.105891	 0.170852	 316.0	 316.0	 316.0	 0.0	 0.0	 1	 -7.642431	 7.642431;
	40	 108	 0.01488	 0.08161	 0.114805	 314.0	 314.0	 314.0	 0.0	 0.0	 1	 -7.642431	 7.642431;
	39	 90	 0.011159	 0.07231	 0.103673	 324.0	 324.0	 324.0	 0.0	 0.0	 1	 -7.642431	 7.642431;
	177	 82	 0.005517	 0.059484	 0.170775	 316.0	 316.0	 316.0	 0.0	 0.0	 1	 -7.642431	 7.642431;
	202	 164	 0.01176	 0.068289	 0.102802	 324.0	 324.0	 324.0	 0.0	 0.0	 1	 -7.642431	 7.642431;
	193	 164	 0.016818	 0.089091	 0.129935	 358.0	 358.0	 358.0	 0.0	 0.0	 1	 -7.642431	 7.642431;
	192	 163	 0.013843	 0.087025	 0.134842	 383.0	 383.0	 383.0	 0.0	 0.0	 1	 -7.642431	 7.642431;
	206	 166	 0.01676	 0.097169	 0.148685	 269.0	 269.0	 269.0	 0.0	 0.0	 1	 -7.642431	 7.642431;
	42	 10	 0.01269	 0.074979	 0.130196	 351.0	 351.0	 351.0	 0.0	 0.0	 1	 -7.642431	 7.642431;
	197	 18	 0.014091	 0.10413	 0.15972	 316.0	 316.0	 316.0	 0.0	 0.0	 1	 -7.642431	 7.642431;
	99	 54	 0.003719	 0.0438	 0.100962	 457.0	 457.0	 457.0	 0.0	 0.0	 1	 -7.642431	 7.642431;
	161	 81	 0.00194	 0.02056	 0.51584	 1178.0	 1178.0	 1178.0	 0.0	 0.0	 1	 -7.642431	 7.642431;
	44	 9	 0.0015	 0.01506	 0.4032	 1386.0	 1386.0	 1386.0	 0.0	 0.0	 1	 -7.642431	 7.642431;
	184	 149	 0.00294	 0.03463	 0.9216	 693.0	 693.0	 693.0	 0.0	 0.0	 1	 -7.642431	 7.642431;
	120	 56	 0.00169	 0.01994	 0.50624	 831.0	 831.0	 831.0	 0.0	 0.0	 1	 -7.642431	 7.642431;
	29	 92	 0.00137	 0.01625	 0.41184	 1386.0	 1386.0	 1386.0	 0.0	 0.0	 1	 -7.642431	 7.642431;
	28	 122	 0.00231	 0.02769	 0.70144	 1386.0	 1386.0	 1386.0	 0.0	 0.0	 1	 -7.642431	 7.642431;
	25	 191	 0.00207	 0.02474	 0.664	 1386.0	 1386.0	 1386.0	 0.0	 0.0	 1	 -7.642431	 7.642431;
	119	 63	 0.0015	 0.01788	 0.4512	 831.0	 831.0	 831.0	 0.0	 0.0	 1	 -7.642431	 7.642431;
	121	 63	 0.00469	 0.05544	 1.4048	 831.0	 831.0	 831.0	 0.0	 0.0	 1	 -7.642431	 7.642431;
	81	 31	 0.00331	 0.03425	 0.85888	 977.0	 977.0	 977.0	 0.0	 0.0	 1	 -7.642431	 7.642431;
	91	 28	 0.00219	 0.02369	 0.59584	 1178.0	 1178.0	 1178.0	 0.0	 0.0	 1	 -7.642431	 7.642431;
	12	 4	 0.01674	 0.09711	 0.144232	 427.0	 427.0	 427.0	 0.0	 0.0	 1	 -7.642431	 7.642431;
	30	 11	 0.0057	 0.0407	 0.06021	 316.0	 316.0	 316.0	 0.0	 0.0	 1	 -7.642431	 7.642431;
	24	 4	 0.004419	 0.032229	 0.049852	 383.0	 383.0	 383.0	 0.0	 0.0	 1	 -7.642431	 7.642431;
	17	 7	 0.014591	 0.11219	 0.165528	 383.0	 383.0	 383.0	 0.0	 0.0	 1	 -7.642431	 7.642431;
	21	 10	 0.01211	 0.087419	 0.140166	 316.0	 316.0	 316.0	 0.0	 0.0	 1	 -7.642431	 7.642431;
	26	 5	 0.009773	 0.050516	 0.088959	 377.0	 377.0	 377.0	 0.0	 0.0	 1	 -7.642431	 7.642431;
	17	 3	 0.01068	 0.07895	 0.245194	 274.0	 274.0	 274.0	 0.0	 0.0	 1	 -7.642431	 7.642431;
	26	 19	 0.0057	 0.039521	 0.075533	 440.0	 440.0	 440.0	 0.0	 0.0	 1	 -7.642431	 7.642431;
	27	 20	 0.0057	 0.039521	 0.075533	 440.0	 440.0	 440.0	 0.0	 0.0	 1	 -7.642431	 7.642431;
	13	 6	 0.00525	 0.03988	 0.061952	 316.0	 316.0	 316.0	 0.0	 0.0	 1	 -7.642431	 7.642431;
	13	 12	 2.1e-05	 0.000207	 0.0	 316.0	 316.0	 316.0	 0.0	 0.0	 1	 -7.642431	 7.642431;
	32	 13	 0.00093	 0.00651	 0.011132	 316.0	 316.0	 316.0	 0.0	 0.0	 1	 -7.642431	 7.642431;
	23	 11	 0.00205	 0.01326	 0.022429	 385.0	 385.0	 385.0	 0.0	 0.0	 1	 -7.642431	 7.642431;
	33	 5	 0.007831	 0.043	 0.04962	 301.0	 301.0	 301.0	 0.0	 0.0	 1	 -7.642431	 7.642431;
	19	 4	 0.00293	 0.01599	 0.024781	 324.0	 324.0	 324.0	 0.0	 0.0	 1	 -7.642431	 7.642431;
	26	 1	 0.00155	 0.01169	 0.018198	 633.0	 633.0	 633.0	 0.0	 0.0	 1	 -7.642431	 7.642431;
	27	 2	 0.00155	 0.01169	 0.018198	 633.0	 633.0	 633.0	 0.0	 0.0	 1	 -7.642431	 7.642431;
	27	 24	 0.003841	 0.028531	 0.045883	 392.0	 392.0	 392.0	 0.0	 0.0	 1	 -7.642431	 7.642431;
	25	 9	 0.00298	 0.03418	 0.93504	 831.0	 831.0	 831.0	 0.0	 0.0	 1	 -7.642431	 7.642431;
	28	 25	 0.00358	 0.04262	 1.0944	 1386.0	 1386.0	 1386.0	 0.0	 0.0	 1	 -7.642431	 7.642431;
	14	 29	 0.00336	 0.03977	 1.02163	 1316.0	 1316.0	 1316.0	 0.0	 0.0	 1	 -7.642431	 7.642431;
	8	 15	 0.00299	 0.03675	 0.9184	 1150.0	 1150.0	 1150.0	 0.0	 0.0	 1	 -7.642431	 7.642431;
	8	 14	 0.00112	 0.01329	 0.341248	 1150.0	 1150.0	 1150.0	 0.0	 0.0	 1	 -7.642431	 7.642431;
...